3    
Iteration 0 Energy -74.92067839
O       -0.4281788462    0.0727167413    0.0253062759
H        0.4311827730    0.4897805263    0.3779780897
H        0.3766765492   -0.4570243587   -0.3039320035
3    
Iteration 1 Energy -74.93138705
O       -0.4154049325    0.0718531351    0.0254870985
H        0.4260316608    0.5116999110    0.3933628536
H        0.3690525846   -0.4780801285   -0.3194976032
3    
Iteration 2 Energy -74.93145509
O       -0.4118058710    0.0716096216    0.0255379091
H        0.4240428831    0.5085351930    0.3909698345
H        0.3674412815   -0.4746718819   -0.3171554061
3    
Iteration 3 Energy -74.93145697
O       -0.4123180627    0.0716443968    0.0255307766
H        0.4243259419    0.5089855004    0.3913096971
H        0.3676695681   -0.4751569522   -0.3174881445
3    
Iteration 4 Energy -74.93145697
O       -0.4123103084    0.0716441741    0.0255311151
H        0.4243215254    0.5089785430    0.3913037968
H        0.3676652489   -0.4751497526   -0.3174825896
