3    
Iteration 0 Energy -74.96508526
O       -0.3157605123    0.0651131359    0.0268935002
H        0.3820645135    0.6166831551    0.4658222490
H        0.3133592758   -0.5763228124   -0.3933634850
3    
Iteration 1 Energy -74.96587715
O       -0.2997971162    0.0640323588    0.0271182430
H        0.3750633598    0.6342417494    0.4779650373
H        0.3043967537   -0.5928006123   -0.4057310130
3    
Iteration 2 Energy -74.96588698
O       -0.2986469672    0.0639547954    0.0271345358
H        0.3743935226    0.6326259656    0.4767641051
H        0.3039162981   -0.5911072519   -0.4045463651
3    
Iteration 3 Energy -74.96588755
O       -0.2988673606    0.0639699904    0.0271315219
H        0.3745224421    0.6329359353    0.4769933400
H        0.3040076624   -0.5914324067   -0.4047725829
