3    
Iteration 0 Energy -74.93455216
O       -0.1523735757    0.0540524650    0.0291934469
H        0.3070389582    0.7376237790    0.5477447471
H        0.2250145045   -0.6862031915   -0.4775855157
3    
Iteration 1 Energy -74.92715324
O       -0.1334518397    0.0527708268    0.0294596311
H        0.2981875366    0.7488239632    0.5552134857
H        0.2149459811   -0.6961217890   -0.4853204118
3    
Iteration 2 Energy -74.92716983
O       -0.1326501820    0.0527166158    0.0294708864
H        0.2976597553    0.7466265639    0.5536036260
H        0.2146741623   -0.6938702326   -0.4837217800
3    
Iteration 3 Energy -74.92716997
O       -0.1327171501    0.0527212383    0.0294699221
H        0.2977052298    0.7468131276    0.5537379581
H        0.2146975741   -0.6940614649   -0.4838551230
