3    
Iteration 0 Energy -74.96588755
O       -0.2988673606    0.0639699904    0.0271315219
H        0.3745224421    0.6329359353    0.4769933400
H        0.3040076624   -0.5914324067   -0.4047725829
3    
Iteration 1 Energy -74.96546256
O       -0.2824995380    0.0628617733    0.0273619276
H        0.3672806393    0.6498388706    0.4886510311
H        0.2948815045   -0.6072271118   -0.4166606747
3    
Iteration 2 Energy -74.96547107
O       -0.2814767190    0.0627928090    0.0273764104
H        0.3666793453    0.6483023656    0.4875110976
H        0.2944599982   -0.6056216394   -0.4155352140
3    
Iteration 3 Energy -74.96547155
O       -0.2816689829    0.0628060839    0.0273737795
H        0.3667930159    0.6485916806    0.4877244837
H        0.2945386176   -0.6059242238   -0.4157459614
