3    
Iteration 0 Energy -74.96390422
O       -0.2641541966    0.0616206480    0.0276204322
H        0.3588681611    0.6636076575    0.4979845335
H        0.2849491011   -0.6197547627   -0.4262526298
3    
Iteration 1 Energy -74.96124775
O       -0.2470268230    0.0604608729    0.0278614737
H        0.3511676428    0.6791618810    0.5086466356
H        0.2755224655   -0.6341492166   -0.4371557593
3    
Iteration 2 Energy -74.96125521
O       -0.2461645954    0.0604027297    0.0278736614
H        0.3506500296    0.6776763555    0.5075482501
H        0.2751782682   -0.6326055601   -0.4360695494
3    
Iteration 3 Energy -74.96125557
O       -0.2463166823    0.0604132436    0.0278715692
H        0.3507421355    0.6779392428    0.5077411331
H        0.2752386035   -0.6328789697   -0.4362603274
