3    
Iteration 0 Energy -74.95957371
O       -0.3487030640    0.0673420854    0.0264291548
H        0.3966320648    0.5825483349    0.4422791589
H        0.3317364777   -0.5444170684   -0.3693560567
3    
Iteration 1 Energy -74.96298505
O       -0.3335956108    0.0663193542    0.0266419088
H        0.3901340984    0.6013883896    0.4553720850
H        0.3231264655   -0.5622343621   -0.3826617399
3    
Iteration 2 Energy -74.96299983
O       -0.3320692614    0.0662163418    0.0266635295
H        0.3892601844    0.5995102935    0.4539705857
H        0.3224736120   -0.5602532329   -0.3812818598
3    
Iteration 3 Energy -74.96300073
O       -0.3323653454    0.0662366820    0.0266594771
H        0.3894301149    0.5998747501    0.4542415956
H        0.3225994352   -0.5606380103   -0.3815488162
