3    
Iteration 0 Energy -74.94139320
O       -0.1717654576    0.0553656888    0.0289206643
H        0.3161836359    0.7274531948    0.5410360291
H        0.2352568726   -0.6773456943   -0.4706040893
3    
Iteration 1 Energy -74.93453856
O       -0.1530846062    0.0541004118    0.0291834675
H        0.3074966083    0.7394097472    0.5490572706
H        0.2252645352   -0.6880370117   -0.4788881128
3    
Iteration 2 Energy -74.93455194
O       -0.1522840574    0.0540462983    0.0291947172
H        0.3069798966    0.7373961106    0.5475799034
H        0.2249824597   -0.6859693121   -0.4774219681
3    
Iteration 3 Energy -74.93455216
O       -0.1523735757    0.0540524650    0.0291934469
H        0.3070389582    0.7376237790    0.5477447471
H        0.2250145045   -0.6862031915   -0.4775855157
