3    
Iteration 0 Energy -74.95301279
O       -0.2096700201    0.0579322870    0.0283873568
H        0.3338739034    0.7043595728    0.5256072048
H        0.2554641291   -0.6568184595   -0.4546420899
3    
Iteration 1 Energy -74.94757081
O       -0.1915448284    0.0567047523    0.0286423725
H        0.3255506998    0.7177934672    0.5347102908
H        0.2456630561   -0.6690248432   -0.4640001711
3    
Iteration 2 Energy -74.94758010
O       -0.1907539163    0.0566513469    0.0286535120
H        0.3250569918    0.7160978518    0.5334624961
H        0.2453670196   -0.6672758588   -0.4627634918
3    
Iteration 3 Energy -74.94758038
O       -0.1908698630    0.0566593454    0.0286518912
H        0.3251304447    0.7163481158    0.5336447680
H        0.2454105292   -0.6675341516   -0.4629441224
