3    
Iteration 0 Energy -74.77651246
O        0.0000000000    0.0000000000    0.0000000000
H        0.2760264000    0.8822741000    0.9495351000
H        0.1036576000   -0.7768012000   -0.5501827000
3    
Iteration 1 Energy -74.86109275
O       -0.0662258434    0.0957658055    0.0235013232
H        0.2810841895    0.8147718062    0.8984688666
H        0.1597679797   -0.7375624337   -0.4715515204
3    
Iteration 2 Energy -74.94368156
O       -0.1537786256    0.2102573196    0.0421172635
H        0.2867182107    0.7117292768    0.8188897745
H        0.2360527684   -0.6459689066   -0.3310092489
3    
Iteration 3 Energy -74.91628871
O       -0.3305041860    0.2255425952   -0.1270893165
H        0.3411705090    0.6453250837    0.8107112109
H        0.3038738549   -0.5284458220   -0.1454454956
3    
Iteration 4 Energy -74.96277588
O       -0.2482529309    0.2812083822    0.0032046714
H        0.2973551039    0.6064884701    0.7391327554
H        0.3092534364   -0.5064383881   -0.1325825646
3    
Iteration 5 Energy -74.95420554
O       -0.1848262984    0.2407594275    0.0363366743
H        0.2959238927    0.6893457207    0.8010160344
H        0.2486893366   -0.6317038551   -0.2894811177
3    
Iteration 6 Energy -74.96506517
O       -0.2247432588    0.2626290837    0.0125998823
H        0.3015910242    0.6490572515    0.7733543227
H        0.2772721054   -0.5729965811   -0.2104208768
3    
Iteration 7 Energy -74.96579016
O       -0.2326918780    0.2748631436    0.0189725624
H        0.3019348806    0.6268916215    0.7607944250
H        0.2845332152   -0.5408993119   -0.1916737028
3    
Iteration 8 Energy -74.96588760
O       -0.2353747871    0.2725884862    0.0126646610
H        0.3049553375    0.6297173380    0.7640687538
H        0.2811753743   -0.5442760410   -0.1919144198
3    
Iteration 9 Energy -74.96590085
O       -0.2340514044    0.2728354876    0.0144623953
H        0.3039552494    0.6304284132    0.7640270513
H        0.2818523137   -0.5459451484   -0.1936287142
3    
Iteration 10 Energy -74.96590121
O       -0.2341055768    0.2728308636    0.0144637879
H        0.3039934997    0.6301446392    0.7638688090
H        0.2818301628   -0.5453729231   -0.1933135784
