3    
Iteration 0 Energy -74.96547155
O       -0.2816689829    0.0628060839    0.0273737795
H        0.3667930159    0.6485916806    0.4877244837
H        0.2945386176   -0.6059242238   -0.4157459614
3    
Iteration 1 Energy -74.96389606
O       -0.2649127741    0.0616715070    0.0276096238
H        0.3593179039    0.6648266360    0.4988887034
H        0.2852575519   -0.6210245974   -0.4271460148
3    
Iteration 2 Energy -74.96390381
O       -0.2639843999    0.0616089132    0.0276227608
H        0.3587666101    0.6633340005    0.4977832307
H        0.2848806773   -0.6194693712   -0.4260536654
3    
Iteration 3 Energy -74.96390422
O       -0.2641541966    0.0616206480    0.0276204322
H        0.3588681611    0.6636076575    0.4979845335
H        0.2849491011   -0.6197547627   -0.4262526298
