3    
Iteration 0 Energy -74.95474883
O       -0.3648117447    0.0684315803    0.0262018349
H        0.4036918980    0.5647509959    0.4299709143
H        0.3407874310   -0.5277093272   -0.3568204912
3    
Iteration 1 Energy -74.95955355
O       -0.3501509965    0.0674391329    0.0264083345
H        0.3974539809    0.5842158533    0.4435280480
H        0.3323639700   -0.5461817127   -0.3705841292
3    
Iteration 2 Energy -74.95957258
O       -0.3483618953    0.0673183330    0.0264336710
H        0.3964376004    0.5821552665    0.4419869317
H        0.3315907188   -0.5440003008   -0.3690683484
3    
Iteration 3 Energy -74.95957371
O       -0.3487057699    0.0673419113    0.0264289596
H        0.3966332795    0.5825513868    0.4422823120
H        0.3317384911   -0.5444199745   -0.3693590158
3    
Iteration 4 Energy -74.95957371
O       -0.3487030640    0.0673420854    0.0264291548
H        0.3966320648    0.5825483349    0.4422791589
H        0.3317364777   -0.5444170684   -0.3693560567
