3    
Iteration 0 Energy -74.95759910
O       -0.2281545201    0.0591837381    0.0281272196
H        0.3424112670    0.6915395932    0.5169604669
H        0.2654089309   -0.6452498593   -0.4457352663
3    
Iteration 1 Energy -74.95300429
O       -0.2103413721    0.0579773967    0.0283778641
H        0.3342860586    0.7056932855    0.5265919585
H        0.2557216530   -0.6581972269   -0.4556173846
3    
Iteration 2 Energy -74.95301248
O       -0.2095434987    0.0579235496    0.0283891157
H        0.3337950613    0.7041065982    0.5254225112
H        0.2554156775   -0.6565567237   -0.4544591691
3    
Iteration 3 Energy -74.95301279
O       -0.2096700201    0.0579322870    0.0283873568
H        0.3338739034    0.7043595728    0.5256072048
H        0.2554641291   -0.6568184595   -0.4546420899
