3    
Iteration 0 Energy -74.96300073
O       -0.3323653454    0.0662366820    0.0266594771
H        0.3894301149    0.5998747501    0.4542415956
H        0.3225994352   -0.5606380103   -0.3815488162
3    
Iteration 1 Energy -74.96507271
O       -0.3168212579    0.0651843462    0.0268783474
H        0.3826763973    0.6180773342    0.4668615307
H        0.3138086529   -0.5777882349   -0.3943876218
3    
Iteration 2 Energy -74.96508454
O       -0.3155056176    0.0650955910    0.0268969856
H        0.3819168752    0.6163478448    0.4655735972
H        0.3132522457   -0.5759699747   -0.3931183226
3    
Iteration 3 Energy -74.96508526
O       -0.3157605123    0.0651131359    0.0268935002
H        0.3820645135    0.6166831551    0.4658222490
H        0.3133592758   -0.5763228124   -0.3933634850
