3    
Iteration 0 Energy -74.94847771
O       -0.3807354982    0.0695085471    0.0259770476
H        0.4106345627    0.5465239510    0.4173470296
H        0.3497710418   -0.5105593536   -0.3439718013
3    
Iteration 1 Energy -74.95472226
O       -0.3665330547    0.0685471580    0.0261771279
H        0.4046620764    0.5666062178    0.4313633959
H        0.3415403472   -0.5296802026   -0.3581882541
3    
Iteration 2 Energy -74.95474744
O       -0.3644185284    0.0684043179    0.0262070598
H        0.4034696925    0.5643271870    0.4296547867
H        0.3406175658   -0.5272583054   -0.3565095805
3    
Iteration 3 Energy -74.95474883
O       -0.3648153446    0.0684314749    0.0262016144
H        0.4036936942    0.5647548745    0.4299746212
H        0.3407898652   -0.5277131282   -0.3568239728
3    
Iteration 4 Energy -74.95474883
O       -0.3648117447    0.0684315803    0.0262018349
H        0.4036918980    0.5647509959    0.4299709143
H        0.3407874310   -0.5277093272   -0.3568204912
