3    
Iteration 0 Energy -74.94758038
O       -0.1908698630    0.0566593454    0.0286518912
H        0.3251304447    0.7163481158    0.5336447680
H        0.2454105292   -0.6675341516   -0.4629441224
3    
Iteration 1 Energy -74.94138196
O       -0.1724549793    0.0554121312    0.0289109672
H        0.3166197269    0.7290494747    0.5422109797
H        0.2355075513   -0.6789883359   -0.4717693848
3    
Iteration 2 Energy -74.94139294
O       -0.1716609828    0.0553584881    0.0289221358
H        0.3161162031    0.7272089492    0.5408586063
H        0.2352185407   -0.6770942129   -0.4704281580
3    
Iteration 3 Energy -74.94139320
O       -0.1717654576    0.0553656888    0.0289206643
H        0.3161836359    0.7274531948    0.5410360291
H        0.2352568726   -0.6773456943   -0.4706040893
