3    
Iteration 0 Energy -74.57308894
O       -0.0859698290   -0.0636457750    0.0449685530
H        0.4040871970    1.5027429180    0.4879929010
H        0.9807309630   -0.4775211190   -1.2123526540
3    
Iteration 1 Energy -74.57445012
O       -0.1382667234   -0.1023626625    0.0723235662
H        0.4491632236    1.4571017542    0.4185037469
H        0.9879518159   -0.3931630758   -1.1702185248
3    
Iteration 2 Energy -74.57542404
O       -0.1266560716   -0.0937490998    0.0662607209
H        0.4393460310    1.4665480253    0.4333508715
H        0.9861583067   -0.4112229296   -1.1790028016
3    
Iteration 3 Energy -74.57539326
O       -0.1253996382   -0.0928347189    0.0655943292
H        0.4382366424    1.4677414873    0.4351018631
H        0.9860112100   -0.4133307934   -1.1800874024
3    
Iteration 4 Energy -74.57535037
O       -0.1254568253   -0.0928807009    0.0656221146
H        0.4382702986    1.4677579034    0.4350793115
H        0.9860346971   -0.4133012463   -1.1800926362
3    
Iteration 5 Energy -74.57533624
O       -0.1254729328   -0.0928920734    0.0656308429
H        0.4382802075    1.4677664944    0.4350748458
H        0.9860408326   -0.4132984914   -1.1800968992
3    
Iteration 6 Energy -74.57533151
O       -0.1254683712   -0.0928882212    0.0656287219
H        0.4382748030    1.4677783395    0.4350868682
H        0.9860416258   -0.4133142084   -1.1801068004
3    
Iteration 7 Energy -74.57532969
O       -0.1254686704   -0.0928880256    0.0656291067
H        0.4382746645    1.4677811494    0.4350886188
H        0.9860420031   -0.4133172390   -1.1801089356
3    
Iteration 8 Energy -74.57532904
O       -0.1254693884   -0.0928884069    0.0656295572
H        0.4382750705    1.4677815657    0.4350884613
H        0.9860422636   -0.4133172951   -1.1801092284
