3    
Iteration 0 Energy -74.65675996
O       -0.0859698290   -0.0636457750    0.0449685530
H        0.1734721260    0.7656188270    0.2795108550
H        1.1689722790   -0.5505579440   -1.4342328680
3    
Iteration 1 Energy -74.65924245
O       -0.1382872133   -0.0913272292    0.0777674990
H        0.2606298413    0.7107599685    0.1655390947
H        1.1515521004   -0.5092877781   -1.3936464587
3    
Iteration 2 Energy -74.65956155
O       -0.1279897653   -0.0804619359    0.0722251403
H        0.2525761514    0.7272241347    0.1851068152
H        1.1504301793   -0.5229524911   -1.4006591224
3    
Iteration 3 Energy -74.65956462
O       -0.1254670736   -0.0739968391    0.0724981357
H        0.2565556520    0.7328509941    0.1866858188
H        1.1471790282   -0.5289984482   -1.4015850968
3    
Iteration 4 Energy -74.65955464
O       -0.1236119798   -0.0659553307    0.0738609577
H        0.2648902728    0.7381637199    0.1854428616
H        1.1420840717   -0.5356755274   -1.4016449849
3    
Iteration 5 Energy -74.65954585
O       -0.1232400884   -0.0615504726    0.0749556945
H        0.2712334536    0.7400317192    0.1838469625
H        1.1387264363   -0.5388119168   -1.4013943590
3    
Iteration 6 Energy -74.65954347
O       -0.1235211926   -0.0609470456    0.0751263513
H        0.2731274154    0.7395868314    0.1838289948
H        1.1379199391   -0.5388911590   -1.4014706728
3    
Iteration 7 Energy -74.65954360
O       -0.1238357017   -0.0608102457    0.0750120335
H        0.2744274395    0.7388003603    0.1846005245
H        1.1374270924   -0.5385662873   -1.4017992386
