3    
Iteration 0 Energy -74.74512002
O       -0.0859698290   -0.0636457750    0.0449685530
H        0.1734721260    0.7656188270    0.2795108550
H        0.9807309630   -0.4775211190   -1.2123526540
3    
Iteration 1 Energy -74.74678461
O       -0.1398826600   -0.0959692146    0.0766297509
H        0.2572721716    0.7067951008    0.1663972971
H        0.9657873528   -0.4319475249   -1.1716264765
3    
Iteration 2 Energy -74.74799019
O       -0.1202047917   -0.0769288982    0.0666607517
H        0.2393262401    0.7366239221    0.2035110366
H        0.9649213397   -0.4563820745   -1.1851988291
3    
Iteration 3 Energy -74.74793219
O       -0.1173301376   -0.0708509172    0.0676474309
H        0.2431488377    0.7423493171    0.2045649780
H        0.9615726604   -0.4622837380   -1.1862191164
3    
Iteration 4 Energy -74.74789804
O       -0.1162280285   -0.0660886750    0.0689335231
H        0.2487149652    0.7455856418    0.2030912994
H        0.9582384672   -0.4662829874   -1.1861252902
3    
Iteration 5 Energy -74.74788561
O       -0.1161568830   -0.0636518020    0.0695874364
H        0.2525938983    0.7465739624    0.2020928617
H        0.9562633398   -0.4679955446   -1.1859529885
3    
Iteration 6 Energy -74.74788276
O       -0.1163669485   -0.0634107577    0.0695359193
H        0.2534938424    0.7462540440    0.2023748042
H        0.9559183377   -0.4679560798   -1.1860681730
3    
Iteration 7 Energy -74.74788240
O       -0.1167437955   -0.0631782209    0.0692775960
H        0.2549065745    0.7454496169    0.2034312391
H        0.9554002459   -0.4676700690   -1.1864671601
