3    
Iteration 0 Energy -74.59991034
O       -0.0859698290   -0.0636457750    0.0449685530
H        0.1446452420    0.6734783160    0.2534505990
H        1.1689722790   -0.5505579440   -1.4342328680
3    
Iteration 1 Energy -74.60210733
O       -0.1368788809   -0.0869860717    0.0786395368
H        0.2338889576    0.6195026113    0.1383114859
H        1.1498049344   -0.5118999292   -1.3934987989
3    
Iteration 2 Energy -74.60258180
O       -0.1238829432   -0.0784469641    0.0694518515
H        0.2162083686    0.6388181356    0.1684472227
H        1.1521472171   -0.5258272141   -1.4039728036
3    
Iteration 3 Energy -74.60259584
O       -0.1218475631   -0.0744115538    0.0692066312
H        0.2175639119    0.6428448955    0.1708562956
H        1.1504517007   -0.5298582622   -1.4050546997
3    
Iteration 4 Energy -74.60258687
O       -0.1205194294   -0.0696855556    0.0697905730
H        0.2218360305    0.6462587608    0.1708385615
H        1.1476514868   -0.5339281342   -1.4053377543
3    
Iteration 5 Energy -74.60258248
O       -0.1191055795   -0.0626435835    0.0710290123
H        0.2298194638    0.6504713484    0.1695982665
H        1.1429526749   -0.5395552969   -1.4053367333
3    
Iteration 6 Energy -74.60257893
O       -0.1191294337   -0.0613386760    0.0713719822
H        0.2321517001    0.6507205665    0.1692184402
H        1.1417983983   -0.5403323022   -1.4053182585
3    
Iteration 7 Energy -74.60257804
O       -0.1193077329   -0.0612249835    0.0713783228
H        0.2330011948    0.6502869196    0.1695083979
H        1.1414627246   -0.5401722755   -1.4054663643
