3    
Iteration 0 Energy -74.64102093
O       -0.0859698290   -0.0636457750    0.0449685530
H        0.3176065450    1.2263213840    0.4098121340
H        1.0434780680   -0.5018667270   -1.2863127260
3    
Iteration 1 Energy -74.64197464
O       -0.1482549052   -0.1025817393    0.0817176390
H        0.3800057463    1.1759448795    0.3210579696
H        1.0433639262   -0.4125542592   -1.2343076614
3    
Iteration 2 Energy -74.64395230
O       -0.1246151323   -0.0907513803    0.0660571766
H        0.3523275703    1.1917092139    0.3566022787
H        1.0474022940   -0.4401489672   -1.2541915069
3    
Iteration 3 Energy -74.64363320
O       -0.1229208392   -0.0912601381    0.0641464603
H        0.3486995187    1.1925064225    0.3605239135
H        1.0493360114   -0.4404374316   -1.2562024266
3    
Iteration 4 Energy -74.64347604
O       -0.1229543358   -0.0919958800    0.0637508615
H        0.3478731374    1.1922297948    0.3611508994
H        1.0501958456   -0.4394250787   -1.2564338161
3    
Iteration 5 Energy -74.64342116
O       -0.1230427227   -0.0923498846    0.0636293996
H        0.3476114753    1.1920383354    0.3612890554
H        1.0505458379   -0.4388796360   -1.2564505130
3    
Iteration 6 Energy -74.64340409
O       -0.1230526286   -0.0923845590    0.0636186842
H        0.3476084939    1.1920550394    0.3613015893
H        1.0505586830   -0.4388616813   -1.2564523340
3    
Iteration 7 Energy -74.64339810
O       -0.1230551487   -0.0923863015    0.0636200611
H        0.3476189189    1.1920696071    0.3613001023
H        1.0505507299   -0.4388745247   -1.2564522268
3    
Iteration 8 Energy -74.64339594
O       -0.1230553446   -0.0923840700    0.0636215269
H        0.3476244677    1.1920770245    0.3612991072
H        1.0505453163   -0.4388841969   -1.2564527016
3    
Iteration 9 Energy -74.64339514
O       -0.1230555502   -0.0923844889    0.0636214691
H        0.3476247337    1.1920784258    0.3612996556
H        1.0505452140   -0.4388851952   -1.2564531948
