3    
Iteration 299 Energy -74.32639564
O       -0.0979591820    0.2937119622    0.4814427627
H        0.6380734015    2.1504149342    0.5784410502
H        0.8786685656   -0.1670515160   -1.2022573127
3    
Iteration 300 Energy -74.39760464
O       -0.0980760306    0.2926795726    0.4760482715
H        0.6404071496    2.1482372524    0.5768946059
H        0.8796781495   -0.1707139799   -1.2059107212
3    
Iteration 301 Energy -74.40093368
O       -0.0945708759    0.2925859329    0.4746178088
H        0.6455845406    2.1481511877    0.5727348993
H        0.8784601530   -0.1748210076   -1.2093629248
