3    
Iteration 0 Energy -74.78625578
O       -0.0859698290   -0.0636457750    0.0449685530
H        0.2311258930    0.9498998500    0.3316313670
H        0.9179838580   -0.4531755100   -1.1383925830
3    
Iteration 1 Energy -74.78822813
O       -0.1427168474   -0.1059368593    0.0739260185
H        0.3080667865    0.8866240891    0.2220829767
H        0.9078869189   -0.4003920845   -1.0980971285
3    
Iteration 2 Energy -74.78930065
O       -0.1239831128   -0.0803642890    0.0691553602
H        0.3028750766    0.9175905152    0.2470844387
H        0.9011158610   -0.4286615891   -1.1082125234
3    
Iteration 3 Energy -74.78917928
O       -0.1210746583   -0.0714841591    0.0713982324
H        0.3109433941    0.9250430014    0.2453794994
H        0.8956274209   -0.4368279038   -1.1084814812
3    
Iteration 4 Energy -74.78912718
O       -0.1205346292   -0.0655943349    0.0734351552
H        0.3193833361    0.9284628210    0.2417199752
H        0.8911373611   -0.4414827343   -1.1076701657
3    
Iteration 5 Energy -74.78911058
O       -0.1209193445   -0.0641518127    0.0739517749
H        0.3226498946    0.9285385054    0.2407262863
H        0.8896963722   -0.4422418435   -1.1074316181
3    
Iteration 6 Energy -74.78910789
O       -0.1212056827   -0.0639497277    0.0738566107
H        0.3237188359    0.9280402083    0.2411841437
H        0.8893050068   -0.4420937458   -1.1076129515
3    
Iteration 7 Energy -74.78910772
O       -0.1218251580   -0.0636064102    0.0733936786
H        0.3259627744    0.9267055358    0.2430064433
H        0.8884925850   -0.4415980869   -1.1082926000
