3    
Iteration 0 Energy -74.90437851
O       -0.0859698290   -0.0636457750    0.0449685530
H        0.1446452420    0.6734783160    0.2534505990
H        0.5415012250   -0.3071018590   -0.6946321570
3    
Iteration 1 Energy -74.90438936
O       -0.0901405494   -0.0663794226    0.0473593866
H        0.1486863092    0.6703652067    0.2477816479
H        0.5416313964   -0.3012552476   -0.6913540595
3    
Iteration 2 Energy -74.90440479
O       -0.0883239062   -0.0651945901    0.0463181006
H        0.1469195962    0.6717373901    0.2502586582
H        0.5415817211   -0.3038123614   -0.6927897805
3    
Iteration 3 Energy -74.90440479
O       -0.0883367963   -0.0652054063    0.0463276015
H        0.1469297249    0.6717281767    0.2502358158
H        0.5415849592   -0.3037924908   -0.6927764414
