3    
Iteration 0 Energy -74.89769034
O       -0.0859698290   -0.0636457750    0.0449685530
H        0.2022990090    0.8577593390    0.3055711110
H        0.7297425410   -0.3801386850   -0.9165123700
3    
Iteration 1 Energy -74.89612309
O       -0.1432454072   -0.1091407608    0.0724928211
H        0.2754998949    0.7905524894    0.1973791535
H        0.7217799086   -0.3237877643   -0.8761785376
3    
Iteration 2 Energy -74.89995124
O       -0.1143013990   -0.0807390847    0.0606123777
H        0.2492400680    0.8317540211    0.2473733395
H        0.7204378075   -0.3585893741   -0.8952354073
3    
Iteration 3 Energy -74.89979973
O       -0.1090581098   -0.0714012816    0.0617723386
H        0.2524697823    0.8416617505    0.2503964202
H        0.7162013030   -0.3682121518   -0.8973269315
3    
Iteration 4 Energy -74.89971238
O       -0.1089794793   -0.0681422754    0.0629129128
H        0.2570131560    0.8438687622    0.2480693320
H        0.7138902997   -0.3709451734   -0.8967336782
3    
Iteration 5 Energy -74.89968803
O       -0.1089188581   -0.0654810016    0.0640225681
H        0.2615104615    0.8453916834    0.2459379155
H        0.7116113326   -0.3730372911   -0.8962228050
3    
Iteration 6 Energy -74.89968167
O       -0.1090124228   -0.0653985087    0.0639731521
H        0.2618436428    0.8452481317    0.2461511260
H        0.7114915222   -0.3730067728   -0.8963047052
3    
Iteration 7 Energy -74.89968014
O       -0.1094262492   -0.0651041678    0.0635974967
H        0.2634376591    0.8443556515    0.2475958217
H        0.7109014123   -0.3727077733   -0.8968392370
3    
Iteration 8 Energy -74.89967979
O       -0.1095084400   -0.0650861121    0.0634767090
H        0.2637264213    0.8441032072    0.2480600796
H        0.7107981199   -0.3725906051   -0.8970109788
