3    
Iteration 0 Energy -74.71327289
O       -0.0859698290   -0.0636457750    0.0449685530
H        0.1734721260    0.7656188270    0.2795108550
H        1.0434780680   -0.5018667270   -1.2863127260
3    
Iteration 1 Energy -74.71539264
O       -0.1393326735   -0.0942797826    0.0770713637
H        0.2585421615    0.7082092449    0.1660241562
H        1.0276244652   -0.4578449216   -1.2456207830
3    
Iteration 2 Energy -74.71618489
O       -0.1229740721   -0.0781806435    0.0685876540
H        0.2440451776    0.7334033983    0.1970919630
H        1.0266936109   -0.4784915483   -1.2569128129
3    
Iteration 3 Energy -74.71615256
O       -0.1201285973   -0.0718014106    0.0693199371
H        0.2479721467    0.7392608000    0.1984117970
H        1.0233073329   -0.4846098414   -1.2579388463
3    
Iteration 4 Energy -74.71612705
O       -0.1187603243   -0.0660707416    0.0706921380
H        0.2544060572    0.7431257061    0.1969598450
H        1.0194061553   -0.4894075924   -1.2578989304
3    
Iteration 5 Energy -74.71611590
O       -0.1185872392   -0.0630180720    0.0715135972
H        0.2591179652    0.7443870044    0.1957573464
H        1.0169635625   -0.4915645357   -1.2577083682
3    
Iteration 6 Energy -74.71611327
O       -0.1188345259   -0.0626889475    0.0714989317
H        0.2602901862    0.7440106375    0.1960005149
H        1.0165010290   -0.4915408855   -1.2578225890
3    
Iteration 7 Energy -74.71611310
O       -0.1192089020   -0.0624672705    0.0712716678
H        0.2617090886    0.7431984397    0.1969874868
H        1.0159786352   -0.4912455716   -1.2582023838
