3    
Iteration 0 Energy -74.63788399
O       -0.0859698290   -0.0636457750    0.0449685530
H        0.3752603130    1.4106024070    0.4619326450
H        0.9179838580   -0.4531755100   -1.1383925830
3    
Iteration 1 Energy -74.63884855
O       -0.1477451747   -0.1093798544    0.0772814970
H        0.4288156230    1.3556260207    0.3789362296
H        0.9262038822   -0.3524650543   -1.0877091270
3    
Iteration 2 Energy -74.64087045
O       -0.1245211558   -0.0921596615    0.0651492074
H        0.4088739270    1.3755848604    0.4095430136
H        0.9229215178   -0.3896441039   -1.1061836184
3    
Iteration 3 Energy -74.64054120
O       -0.1227586005   -0.0908844759    0.0642100078
H        0.4071970800    1.3776836066    0.4123609631
H        0.9228357681   -0.3930180588   -1.1080623714
3    
Iteration 4 Energy -74.64037484
O       -0.1228916675   -0.0909854735    0.0642781583
H        0.4072469894    1.3778116920    0.4123878030
H        0.9229188876   -0.3930451676   -1.1081573657
3    
Iteration 5 Energy -74.64031806
O       -0.1229814345   -0.0910492651    0.0643266527
H        0.4073032429    1.3778151909    0.4123362026
H        0.9229523632   -0.3929848963   -1.1081542635
3    
Iteration 6 Energy -74.64029981
O       -0.1229785730   -0.0910448169    0.0643264982
H        0.4072941664    1.3778452457    0.4123623084
H        0.9229585360   -0.3930194215   -1.1081802184
3    
Iteration 7 Energy -74.64029314
O       -0.1229688929   -0.0910377573    0.0643213574
H        0.4072815962    1.3778629249    0.4123845468
H        0.9229613586   -0.3930441979   -1.1081973226
3    
Iteration 8 Energy -74.64029050
O       -0.1229636721   -0.0910337749    0.0643186767
H        0.4072755441    1.3778712987    0.4123951649
H        0.9229621183   -0.3930565943   -1.1082052663
3    
Iteration 9 Energy -74.64028941
O       -0.1229641131   -0.0910337621    0.0643190955
H        0.4072756876    1.3778726395    0.4123957973
H        0.9229623750   -0.3930579704   -1.1082063215
3    
Iteration 10 Energy -74.64028903
O       -0.1229643897   -0.0910338733    0.0643192848
H        0.4072757633    1.3778729584    0.4123959022
H        0.9229625388   -0.3930581997   -1.1082066193
