3    
Iteration 0 Energy -74.89666842
O       -0.0859698290   -0.0636457750    0.0449685530
H        0.1446452420    0.6734783160    0.2534505990
H        0.4787541200   -0.2827562510   -0.6206720860
3    
Iteration 1 Energy -74.89670540
O       -0.0785013112   -0.0584226907    0.0408883786
H        0.1379138923    0.6790050095    0.2630703914
H        0.4780175127   -0.2935063857   -0.6262116555
3    
Iteration 2 Energy -74.89675791
O       -0.0817146268   -0.0606788533    0.0426429792
H        0.1407937752    0.6766769717    0.2589677314
H        0.4783513417   -0.2889223483   -0.6238635984
3    
Iteration 3 Energy -74.89675794
O       -0.0817715011   -0.0607216995    0.0426766196
H        0.1408424840    0.6766352955    0.2588887826
H        0.4783601529   -0.2888381441   -0.6238182705
