3    
Iteration 0 Energy -74.83665785
O       -0.0859698290   -0.0636457750    0.0449685530
H        0.2887796610    1.1341808730    0.3837518780
H        0.7297425410   -0.3801386850   -0.9165123700
3    
Iteration 1 Energy -74.83638651
O       -0.1447856934   -0.1071890163    0.0757336295
H        0.3400238497    1.0809640593    0.3039808012
H        0.7373142317   -0.2833786445   -0.8675063909
3    
Iteration 2 Energy -74.84003552
O       -0.1150466834   -0.0851422763    0.0601954864
H        0.3143029816    1.1071647592    0.3437234383
H        0.7332960631   -0.3316261121   -0.8917108885
3    
Iteration 3 Energy -74.83947973
O       -0.1144600247   -0.0847450645    0.0598670308
H        0.3135470883    1.1085693556    0.3452601263
H        0.7334652803   -0.3334279598   -0.8929191339
3    
Iteration 4 Energy -74.83926460
O       -0.1145633607   -0.0848211911    0.0599213062
H        0.3135462722    1.1088140821    0.3454030802
H        0.7335694141   -0.3335966028   -0.8931163778
3    
Iteration 5 Energy -74.83918931
O       -0.1146163284   -0.0848562377    0.0599514271
H        0.3135604644    1.1088839221    0.3454301211
H        0.7336081664   -0.3336314505   -0.8931735565
3    
Iteration 6 Energy -74.83916336
O       -0.1146317612   -0.0848659331    0.0599605042
H        0.3135613938    1.1089093725    0.3454440156
H        0.7336226455   -0.3336472627   -0.8931965469
3    
Iteration 7 Energy -74.83915437
O       -0.1146366510   -0.0848691298    0.0599633025
H        0.3135604836    1.1089180149    0.3454499027
H        0.7336284191   -0.3336527669   -0.8932052516
3    
Iteration 8 Energy -74.83915125
O       -0.1146383587   -0.0848703006    0.0599642493
H        0.3135599329    1.1089208309    0.3454520599
H        0.7336306512   -0.3336544716   -0.8932083747
3    
Iteration 9 Energy -74.83915017
O       -0.1146389735   -0.0848706835    0.0599646082
H        0.3135597604    1.1089217820    0.3454527748
H        0.7336314172   -0.3336550864   -0.8932094635
3    
Iteration 10 Energy -74.83914979
O       -0.1146391922   -0.0848708172    0.0599647379
H        0.3135596949    1.1089220957    0.3454530168
H        0.7336316827   -0.3336553093   -0.8932098486
