3    
Iteration 0 Energy -74.67121014
O       -0.0859698290   -0.0636457750    0.0449685530
H        0.3464334290    1.3184618950    0.4358723900
H        0.9179838580   -0.4531755100   -1.1383925830
3    
Iteration 1 Energy -74.67224102
O       -0.1457276343   -0.1060782495    0.0772767511
H        0.4003403842    1.2666275797    0.3543664787
H        0.9238346993   -0.3589087282   -1.0891948852
3    
Iteration 2 Energy -74.67423774
O       -0.1230722632   -0.0907082637    0.0646114342
H        0.3790442072    1.2849371471    0.3853060847
H        0.9224754669   -0.3925882980   -1.1074691731
3    
Iteration 3 Energy -74.67392003
O       -0.1216223879   -0.0900351786    0.0636204377
H        0.3772280513    1.2864667822    0.3879261326
H        0.9228417078   -0.3947910408   -1.1090982281
3    
Iteration 4 Energy -74.67376774
O       -0.1216954987   -0.0902040911    0.0635919709
H        0.3771193002    1.2865574877    0.3880824931
H        0.9230235325   -0.3947128560   -1.1092261269
3    
Iteration 5 Energy -74.67371491
O       -0.1217388260   -0.0902730886    0.0635931693
H        0.3770998771    1.2865742563    0.3881107359
H        0.9230862302   -0.3946606566   -1.1092555728
3    
Iteration 6 Energy -74.67369704
O       -0.1217471178   -0.0902918735    0.0635901456
H        0.3770871709    1.2865853064    0.3881292577
H        0.9231071815   -0.3946529490   -1.1092710762
3    
Iteration 7 Energy -74.67369083
O       -0.1217498540   -0.0902965503    0.0635900269
H        0.3770848306    1.2865906862    0.3881346028
H        0.9231122156   -0.3946536761   -1.1092763075
3    
Iteration 8 Energy -74.67368867
O       -0.1217509128   -0.0902971964    0.0635906518
H        0.3770854174    1.2865933173    0.3881355644
H        0.9231126546   -0.3946556795   -1.1092778975
3    
Iteration 9 Energy -74.67368791
O       -0.1217513536   -0.0902967379    0.0635913302
H        0.3770865921    1.2865947646    0.3881352776
H        0.9231118886   -0.3946576035   -1.1092782933
