3    
Iteration 0 Energy -74.42754538
O       -0.0859698290   -0.0636457750    0.0449685530
H        0.4617409640    1.6870239410    0.5401134130
H        1.1689722790   -0.5505579440   -1.4342328680
3    
Iteration 1 Energy -74.42848434
O       -0.1157508392   -0.0850663083    0.0609105155
H        0.4879709911    1.6625489521    0.5008881343
H        1.1725232359   -0.5046623813   -1.4109495614
3    
Iteration 2 Energy -74.42970491
O       -0.1532217878   -0.1134581324    0.0801309312
H        0.5197458046    1.6272645388    0.4500963897
H        1.1782175090   -0.4409869940   -1.3793779943
3    
Iteration 3 Energy -74.43142828
O       -0.1736294326   -0.1289019525    0.0906109112
H        0.5378880101    1.6051568884    0.4199559392
H        1.1804823457   -0.4034355684   -1.3597175182
3    
Iteration 4 Energy -74.43434553
O       -0.2018321863   -0.1499435517    0.1052688559
H        0.5638120423    1.5733621455    0.3767688704
H        1.1827607900   -0.3505991901   -1.3311883921
3    
Iteration 5 Energy -74.44208545
O       -0.2466369886   -0.1826611024    0.1289682229
H        0.6070668773    1.5184069108    0.3036035966
H        1.1843106762   -0.2629263293   -1.2817224857
3    
Iteration 6 Energy -74.47982254
O       -0.3323774398   -0.2429597226    0.1756631694
H        0.6967115595    1.3943162980    0.1460451381
H        1.1804064790   -0.0785369916   -1.1708589838
3    
Iteration 7 Energy -74.62985381
O       -0.4389721161   -0.3103208642    0.2381335728
H        0.8275969957    1.1767467511   -0.1051433048
H        1.1561157523    0.2063937465   -0.9821409533
3    
Iteration 8 Energy -74.48755148
O       -0.6896236275   -0.2520539429    0.5109241260
H        1.2604565660   -0.0525575927   -1.2320711484
H        0.9739076938    1.3774311764   -0.1280036557
3    
Iteration 9 Energy -74.52991001
O       -0.4800644493   -0.1763744158    0.3551363135
H        1.1115425733   -0.0617461174   -1.0954578948
H        0.9132625083    1.3109401739   -0.1088290967
3    
Iteration 10 Energy -74.55279337
O       -0.4161445771   -0.1635059972    0.3016820205
H        1.0533061011   -0.0569151861   -1.0371368570
H        0.9075791085    1.2932408242   -0.1136958416
3    
Iteration 11 Energy -74.61834414
O       -0.4198912634   -0.1763591704    0.2977850499
H        1.0322602653    0.0426436608   -0.9592248726
H        0.9323716335    1.2065351532   -0.1877108557
3    
Iteration 12 Energy -74.53412671
O       -0.4684564000   -0.2494575139    0.3016050974
H        0.9001955121    1.3361256984   -0.0817386288
H        1.1130015324   -0.0138485301   -1.0690171378
3    
Iteration 13 Energy -74.52499380
O       -0.3933995636   -0.2392195504    0.2360060220
H        0.8275071706    1.3422541058   -0.0088874193
H        1.1106330373   -0.0302149011   -1.0762692718
3    
Iteration 14 Energy -74.56567555
O       -0.3757153356   -0.2434170553    0.2167095065
H        0.8022605018    1.2648274629   -0.0298108272
H        1.1181954807    0.0514092497   -1.0360493489
3    
Iteration 15 Energy -74.62335404
O       -0.3864804925   -0.2459659276    0.2254903492
H        0.8090430488    1.1694422822   -0.0917011637
H        1.1221780928    0.1493433058   -0.9829398550
3    
Iteration 16 Energy -74.71226319
O       -0.4099589544   -0.2416986376    0.2503507826
H        0.8402674125    1.0398432321   -0.1967711167
H        1.1144321915    0.2746750672   -0.9027303344
3    
Iteration 17 Energy -74.76818304
O       -0.4338467894   -0.2424140934    0.2727061490
H        0.8870658319    0.8624723104   -0.3444455379
H        1.0915216008    0.4527614398   -0.7774112757
3    
Iteration 18 Energy -74.76939659
O       -0.4562285434   -0.2031140831    0.3168774046
H        0.8934488938    0.9291736230   -0.3117717545
H        1.1075202690    0.3467601033   -0.8542562926
3    
Iteration 19 Energy -74.77718152
O       -0.4584584000   -0.1998173276    0.3209186928
H        0.9116241984    0.9077130184   -0.3415679787
H        1.0915748001    0.3649239396   -0.8285013411
3    
Iteration 20 Energy -74.77799851
O       -0.4598759210   -0.2062978137    0.3185043548
H        0.9213981307    0.8985616096   -0.3562019971
H        1.0832183463    0.3805558077   -0.8114529513
3    
Iteration 21 Energy -74.77815083
O       -0.4610455923   -0.2065122235    0.3194947576
H        0.9230153718    0.9047645041   -0.3541392131
H        1.0827707577    0.3745673100   -0.8145061224
3    
Iteration 22 Energy -74.77816355
O       -0.4604523735   -0.2110215810    0.3163090432
H        0.9238525772    0.9078237830   -0.3531595372
H        1.0813403024    0.3760173674   -0.8123000578
3    
Iteration 23 Energy -74.77822715
O       -0.4540838810   -0.2533535174    0.2856406779
H        0.9235933274    0.9308146218   -0.3395525354
H        1.0752308017    0.3953582940   -0.7952384853
3    
Iteration 24 Energy -74.77828525
O       -0.4263578210   -0.3786617081    0.1863986166
H        0.9110433743    0.9955832431   -0.2899525350
H        1.0600539325    0.4558973480   -0.7455958054
3    
Iteration 25 Energy -74.77815832
O       -0.3649069485   -0.5379288020    0.0352760588
H        0.8628956561    1.0653160231   -0.2035343821
H        1.0467498382    0.5454310200   -0.6808906405
3    
Iteration 26 Energy -74.77769052
O       -0.2883282543   -0.6494140990   -0.1025026620
H        0.7838673293    1.0916184893   -0.1129172800
H        1.0491988590    0.6306134184   -0.6337285341
3    
Iteration 27 Energy -74.77750958
O       -0.3081955305   -0.5700163629   -0.0374285177
H        0.7422701669    0.9923046412   -0.1309776999
H        1.1106640087    0.6505299844   -0.6807428510
3    
Iteration 28 Energy -74.77810684
O       -0.3107809473   -0.5825211914   -0.0422300818
H        0.7458732803    0.9907665688   -0.1353047532
H        1.1096461607    0.6645727793   -0.6716141322
3    
Iteration 29 Energy -74.77834862
O       -0.2724006109   -0.6526385794   -0.1195587901
H        0.7316677649    1.0295264653   -0.0992395805
H        1.0854707638    0.6959298716   -0.6303501559
3    
Iteration 30 Energy -74.77833753
O       -0.1779406441   -0.7572482728   -0.2703876120
H        0.6751407142    1.0745941502   -0.0191647428
H        1.0475369453    0.7554712465   -0.5595954979
3    
Iteration 31 Energy -74.77738602
O       -0.0578943339   -0.8249856790   -0.4241809776
H        0.5827227028    1.0727499275    0.0678629772
H        1.0199078939    0.8250523170   -0.4928293475
3    
Iteration 32 Energy -74.77671953
O       -0.1226795181   -0.7130562465   -0.2973849990
H        0.5779398169    0.9423956009   -0.0033264778
H        1.0894767802    0.8434777173   -0.5484366189
3    
Iteration 33 Energy -74.77820975
O       -0.1079862692   -0.7622466849   -0.3399737267
H        0.5916435995    0.9841686521    0.0078843819
H        1.0610792093    0.8508947346   -0.5170583677
3    
Iteration 34 Energy -74.77840182
O       -0.0528408729   -0.8041088396   -0.4168652627
H        0.5631804211    1.0068524159    0.0481983619
H        1.0343965127    0.8700727829   -0.4804804850
3    
Iteration 35 Energy -74.77591297
O        0.1836083655   -0.9078575624   -0.7025432899
H        0.4241443316    1.0544591557    0.2083990507
H        0.9369817887    0.9262136218   -0.3550021342
3    
Iteration 36 Energy -74.77788272
O        0.0898183122   -0.8693272927   -0.5907498829
H        0.4773791124    1.0267640856    0.1415594678
H        0.9775376624    0.9153788496   -0.3999563717
3    
Iteration 37 Energy -74.72897283
O        0.2601608580   -0.8668164690   -0.7516700860
H        0.2898197063    1.0062442084    0.3084272288
H        0.9947545230    0.9333879031   -0.4059039297
3    
Iteration 38 Energy -74.74880430
O        0.2483205146   -0.8197929123   -0.7130592285
H        0.3056958309    0.9253645028    0.2462965314
H        0.9907187416    0.9672440521   -0.3823840900
3    
Iteration 39 Energy -74.76536223
O        0.2192692202   -0.8284568276   -0.6903996536
H        0.4320577432    0.9190171796    0.1221506039
H        0.8934081216    0.9822552886   -0.2808977408
3    
Iteration 40 Energy -74.77396050
O        0.2304701263   -0.8130885823   -0.6921472528
H        0.3578922615    0.8853954581    0.1733135760
H        0.9563726856    1.0005087510   -0.3303131287
3    
Iteration 41 Energy -74.77773234
O        0.2159003548   -0.8175556973   -0.6808539433
H        0.3833425599    0.8885510800    0.1508863421
H        0.9454921496    1.0018202288   -0.3191792188
3    
Iteration 42 Energy -74.77814004
O        0.2065736186   -0.8199411333   -0.6733490869
H        0.3982369190    0.8909148202    0.1380605041
H        0.9399245104    1.0018418927   -0.3138582647
3    
Iteration 43 Energy -74.77816048
O        0.2066119171   -0.8195605869   -0.6731644633
H        0.3958510778    0.8887728976    0.1390894883
H        0.9422720448    1.0036032531   -0.3150718852
3    
Iteration 44 Energy -74.77815852
O        0.2055790582   -0.8197227539   -0.6722740784
H        0.3963813729    0.8885262416    0.1384397818
H        0.9427745964    1.0040120533   -0.3153125819
3    
Iteration 45 Energy -74.77815794
O        0.2042630459   -0.8198583398   -0.6710983033
H        0.3971299817    0.8887807756    0.1378723858
H        0.9433419773    1.0038930643   -0.3159209953
