3    
Iteration 0 Energy -74.82045584
O       -0.0859698290   -0.0636457750    0.0449685530
H        0.2311258930    0.9498998500    0.3316313670
H        0.8552367520   -0.4288299020   -1.0644325120
3    
Iteration 1 Energy -74.82189416
O       -0.1432318785   -0.1081402037    0.0731562105
H        0.3060565448    0.8848692635    0.2229600709
H        0.8464024545   -0.3740673922   -1.0241907016
3    
Iteration 2 Energy -74.82343178
O       -0.1209977416   -0.0791509173    0.0671646117
H        0.2976189111    0.9206880877    0.2537490247
H        0.8395041626   -0.4064714567   -1.0365893751
3    
Iteration 3 Energy -74.82326232
O       -0.1183822250   -0.0711354264    0.0694926308
H        0.3051589992    0.9275301118    0.2518611525
H        0.8344263155   -0.4139002254   -1.0368094434
3    
Iteration 4 Energy -74.82320098
O       -0.1179919584   -0.0659011297    0.0713625708
H        0.3127859887    0.9306370684    0.2483923892
H        0.8304176249   -0.4180708673   -1.0360100238
3    
Iteration 5 Energy -74.82318239
O       -0.1183196514   -0.0646898205    0.0718147213
H        0.3155574388    0.9307363056    0.2475379291
H        0.8291956892   -0.4187261539   -1.0358088622
3    
Iteration 6 Energy -74.82317889
O       -0.1185567176   -0.0645168791    0.0717291472
H        0.3164435256    0.9303323593    0.2479393979
H        0.8288711246   -0.4186106638   -1.0359668025
3    
Iteration 7 Energy -74.82317838
O       -0.1190902926   -0.0642103695    0.0713163051
H        0.3183760862    0.9291981005    0.2495380465
H        0.8281714652   -0.4181968267   -1.0365596836
