3    
Iteration 0 Energy -74.54227636
O       -0.0859698290   -0.0636457750    0.0449685530
H        0.4040871970    1.5027429180    0.4879929010
H        1.0434780680   -0.5018667270   -1.2863127260
3    
Iteration 1 Energy -74.54365029
O       -0.1339880167   -0.0979864887    0.0707877157
H        0.4468836941    1.4621392212    0.4236037959
H        1.0486997404   -0.4269223220   -1.2477427945
3    
Iteration 2 Energy -74.54433787
O       -0.1277302712   -0.0944944121    0.0668516155
H        0.4401085816    1.4658081639    0.4321940586
H        1.0492170481   -0.4340833644   -1.2523969545
3    
Iteration 3 Energy -74.54441829
O       -0.1267305034   -0.0943976099    0.0659548224
H        0.4384530157    1.4660663095    0.4339222124
H        1.0498727814   -0.4344383384   -1.2532283132
3    
Iteration 4 Energy -74.54442589
O       -0.1266712057   -0.0946402038    0.0657573190
H        0.4380600459    1.4658888025    0.4341936548
H        1.0502063890   -0.4340182644   -1.2533022510
3    
Iteration 5 Energy -74.54442849
O       -0.1266918006   -0.0948169588    0.0656742230
H        0.4378850443    1.4657423898    0.4342753791
H        1.0504018916   -0.4336951338   -1.2533008772
3    
Iteration 6 Energy -74.54443066
O       -0.1266942508   -0.0948271164    0.0656706437
H        0.4378904127    1.4657390987    0.4342683356
H        1.0503989149   -0.4336817099   -1.2532902533
3    
Iteration 7 Energy -74.54443147
O       -0.1266934905   -0.0948277229    0.0656695531
H        0.4378930329    1.4657407279    0.4342667718
H        1.0503954776   -0.4336827560   -1.2532875976
