3    
Iteration 0 Energy -74.72928416
O       -0.0859698290   -0.0636457750    0.0449685530
H        0.2022990090    0.8577593390    0.3055711110
H        1.0434780680   -0.5018667270   -1.2863127260
3    
Iteration 1 Energy -74.73168181
O       -0.1405755870   -0.0983579899    0.0761020785
H        0.2849756720    0.7990751906    0.1934096838
H        1.0294426070   -0.4551685382   -1.2457987779
3    
Iteration 2 Energy -74.73228412
O       -0.1264362445   -0.0804555516    0.0709237402
H        0.2787042007    0.8222614271    0.2152731414
H        1.0255086249   -0.4757128692   -1.2541413247
3    
Iteration 3 Energy -74.73224277
O       -0.1233454429   -0.0720653966    0.0722412498
H        0.2851135298    0.8294060821    0.2153802278
H        1.0207584999   -0.4834802651   -1.2548536050
3    
Iteration 4 Energy -74.73221338
O       -0.1221470520   -0.0651611184    0.0741257173
H        0.2937238225    0.8336492567    0.2126422369
H        1.0158540699   -0.4890539775   -1.2544268153
3    
Iteration 5 Energy -74.73220091
O       -0.1223572100   -0.0628520629    0.0748511738
H        0.2980625942    0.8341446398    0.2114001458
H        1.0137896829   -0.4904561833   -1.2541684700
3    
Iteration 6 Energy -74.73219905
O       -0.1226816307   -0.0625746185    0.0747932133
H        0.2993748287    0.8335826423    0.2118005594
H        1.0132957077   -0.4903138955   -1.2543396733
3    
Iteration 7 Energy -74.73219923
O       -0.1232504748   -0.0622717677    0.0744248642
H        0.3014828671    0.8323215283    0.2133663561
H        1.0125259470   -0.4898347363   -1.2549383441
