3    
Iteration 0 Energy -74.77020904
O       -0.0859698290   -0.0636457750    0.0449685530
H        0.2887796610    1.1341808730    0.3837518780
H        0.8552367520   -0.4288299020   -1.0644325120
3    
Iteration 1 Energy -74.77079372
O       -0.1458349900   -0.1038967704    0.0786468389
H        0.3454673481    1.0832374168    0.3001127185
H        0.8584142260   -0.3376354566   -1.0144716546
3    
Iteration 2 Energy -74.77354417
O       -0.1191949446   -0.0864093467    0.0634135143
H        0.3197316735    1.1047809368    0.3371633492
H        0.8575098199   -0.3766664183   -1.0362889604
3    
Iteration 3 Energy -74.77310026
O       -0.1182346247   -0.0860142187    0.0627276606
H        0.3185022795    1.1062319150    0.3391783274
H        0.8577788594   -0.3785125486   -1.0376180899
3    
Iteration 4 Energy -74.77291438
O       -0.1183208802   -0.0861404986    0.0627365007
H        0.3184842207    1.1064358658    0.3393140154
H        0.8578831397   -0.3785902421   -1.0377626231
3    
Iteration 5 Energy -74.77284895
O       -0.1183683712   -0.0861852481    0.0627557559
H        0.3185039127    1.1064983755    0.3393315404
H        0.8579108932   -0.3786080330   -1.0377994105
3    
Iteration 6 Energy -74.77282633
O       -0.1183803390   -0.0861941288    0.0627619940
H        0.3185092929    1.1065252920    0.3393420349
H        0.8579174349   -0.3786261013   -1.0378161506
3    
Iteration 7 Energy -74.77281840
O       -0.1183844767   -0.0861964810    0.0627645597
H        0.3185113293    1.1065348089    0.3393456115
H        0.8579194877   -0.3786333004   -1.0378222998
3    
Iteration 8 Energy -74.77281562
O       -0.1183859457   -0.0861973938    0.0627654174
H        0.3185116796    1.1065378621    0.3393470399
H        0.8579205560   -0.3786354738   -1.0378245936
3    
Iteration 9 Energy -74.77281465
O       -0.1183864583   -0.0861977883    0.0627656672
H        0.3185116081    1.1065388054    0.3393476474
H        0.8579211011   -0.3786360496   -1.0378254571
