3    
Iteration 0 Energy -74.75317324
O       -0.0859698290   -0.0636457750    0.0449685530
H        0.2311258930    0.9498998500    0.3316313670
H        0.9807309630   -0.4775211190   -1.2123526540
3    
Iteration 1 Energy -74.75549020
O       -0.1421983934   -0.1039194066    0.0745872995
H        0.3098432679    0.8882607047    0.2213572832
H        0.9694865525   -0.4265647268   -1.1720249913
3    
Iteration 2 Energy -74.75622934
O       -0.1269092436   -0.0817347775    0.0710421792
H        0.3077184217    0.9143320211    0.2406695542
H        0.9629043536   -0.4506927037   -1.1799085588
3    
Iteration 3 Energy -74.75615193
O       -0.1237502547   -0.0719125664    0.0732203667
H        0.3164511479    0.9224182612    0.2390552755
H        0.9569584371   -0.4596469322   -1.1801905009
3    
Iteration 4 Energy -74.75610880
O       -0.1230604510   -0.0652201745    0.0754578795
H        0.3258790554    0.9262247618    0.2351044242
H        0.9518994978   -0.4648963851   -1.1793338145
3    
Iteration 5 Energy -74.75609411
O       -0.1234992955   -0.0635123001    0.0760830232
H        0.3297258228    0.9262784377    0.2338904925
H        0.9501954617   -0.4657771649   -1.1790394048
3    
Iteration 6 Energy -74.75609226
O       -0.1238424052   -0.0632888496    0.0759846514
H        0.3309796699    0.9256744469    0.2343796290
H        0.9497400251   -0.4655868978   -1.1792347721
3    
Iteration 7 Energy -74.75609245
O       -0.1245358095   -0.0629304717    0.0754935547
H        0.3334615451    0.9241701360    0.2363387148
H        0.9488455978   -0.4650139390   -1.1799687234
