3    
Iteration 0 Energy -74.85490987
O       -0.0859698290   -0.0636457750    0.0449685530
H        0.2311258930    0.9498998500    0.3316313670
H        0.7924896470   -0.4044842930   -0.9904724410
3    
Iteration 1 Energy -74.85558557
O       -0.1437309695   -0.1105505613    0.0722541245
H        0.3037715578    0.8829887830    0.2240228579
H        0.7850473940   -0.3475763662   -0.9503109837
3    
Iteration 2 Energy -74.85775351
O       -0.1179384184   -0.0781823896    0.0650092785
H        0.2917573997    0.9235605114    0.2608033023
H        0.7781581653   -0.3840463302   -0.9650787824
3    
Iteration 3 Energy -74.85753474
O       -0.1156806759   -0.0709976662    0.0674263576
H        0.2988597179    0.9297864399    0.2586544441
H        0.7734781037   -0.3907516734   -0.9652128925
3    
Iteration 4 Energy -74.85746474
O       -0.1154015761   -0.0661654253    0.0692232765
H        0.3059989622    0.9327506369    0.2551962029
H        0.7697688853   -0.3946499171   -0.9643822316
3    
Iteration 5 Energy -74.85744405
O       -0.1156729578   -0.0651374883    0.0696530391
H        0.3083759539    0.9328875010    0.2543948925
H        0.7687160402   -0.3952323381   -0.9641964567
3    
Iteration 6 Energy -74.85743976
O       -0.1158702854   -0.0649955560    0.0695797492
H        0.3090868763    0.9325688918    0.2547196738
H        0.7684592045   -0.3951440186   -0.9643222007
3    
Iteration 7 Energy -74.85743895
O       -0.1163048378   -0.0647429842    0.0692405777
H        0.3106409391    0.9316686430    0.2560060390
H        0.7678993290   -0.3948202374   -0.9647957910
