3    
Iteration 0 Energy -74.95436144
O       -0.0859698290   -0.0636457750    0.0449685530
H        0.1734721260    0.7656188270    0.2795108550
H        0.5415012250   -0.3071018590   -0.6946321570
3    
Iteration 1 Energy -74.95445327
O       -0.1002650090   -0.0735910946    0.0528189207
H        0.1865568021    0.7538866462    0.2602167125
H        0.5427122277   -0.2854244908   -0.6831884760
3    
Iteration 2 Energy -74.95463513
O       -0.0938029543   -0.0691168713    0.0492599777
H        0.1805917513    0.7593664370    0.2690848025
H        0.5422153887   -0.2953786147   -0.6884976323
3    
Iteration 3 Energy -74.95463524
O       -0.0939395344   -0.0692135185    0.0493362952
H        0.1807157431    0.7592535592    0.2688970332
H        0.5422283657   -0.2951692602   -0.6883862292
