3    
Iteration 0 Energy -74.64386938
O       -0.0859698290   -0.0636457750    0.0449685530
H        0.2887796610    1.1341808730    0.3837518780
H        1.1062251740   -0.5262123350   -1.3602727970
3    
Iteration 1 Energy -74.64485345
O       -0.1476050856   -0.0987474359    0.0833263368
H        0.3545744860    1.0866094737    0.2933906071
H        1.1020655841   -0.4435392735   -1.3082693189
3    
Iteration 2 Energy -74.64671951
O       -0.1248083117   -0.0894133028    0.0670189690
H        0.3252080075    1.1002091665    0.3292864988
H        1.1086352579   -0.4664731097   -1.3278578404
3    
Iteration 3 Energy -74.64642688
O       -0.1234228981   -0.0908020258    0.0648913761
H        0.3210830930    1.1002718196    0.3332549184
H        1.1113747205   -0.4651470496   -1.3296986673
3    
Iteration 4 Energy -74.64628500
O       -0.1234734978   -0.0921526435    0.0641547915
H        0.3195181609    1.0995074344    0.3343024854
H        1.1129902034   -0.4630320605   -1.3300096492
3    
Iteration 5 Energy -74.64623508
O       -0.1236370825   -0.0926972227    0.0639942717
H        0.3191800992    1.0991595755    0.3344225829
H        1.1134917968   -0.4621396353   -1.3299692278
3    
Iteration 6 Energy -74.64622103
O       -0.1236597594   -0.0927416953    0.0639900354
H        0.3192058454    1.0991732744    0.3344059836
H        1.1134886870   -0.4621088712   -1.3299483933
3    
Iteration 7 Energy -74.64621633
O       -0.1236597642   -0.0927472065    0.0639868232
H        0.3192122427    1.0991875500    0.3344081654
H        1.1134822490   -0.4621176478   -1.3299473641
3    
Iteration 8 Energy -74.64621457
O       -0.1236585158   -0.0927481343    0.0639850794
H        0.3192128481    1.0991935546    0.3344110613
H        1.1134803420   -0.4621227379   -1.3299485160
3    
Iteration 9 Energy -74.64621389
O       -0.1236584764   -0.0927488138    0.0639846325
H        0.3192130795    1.0991952305    0.3344117991
H        1.1134800178   -0.4621237489   -1.3299488068
