3    
Iteration 0 Energy -74.70095596
O       -0.0859698290   -0.0636457750    0.0449685530
H        0.2599527770    1.0420403610    0.3576916220
H        1.0434780680   -0.5018667270   -1.2863127260
3    
Iteration 1 Energy -74.70210696
O       -0.1466522961   -0.0974092665    0.0831958586
H        0.3255892383    0.9953150702    0.2679727577
H        1.0385240584   -0.4213779417   -1.2348211775
3    
Iteration 2 Energy -74.70401763
O       -0.1238881347   -0.0864976999    0.0678362202
H        0.2984985481    1.0104155837    0.3025712186
H        1.0428505524   -0.4473900300   -1.2540599967
3    
Iteration 3 Energy -74.70374226
O       -0.1227759163   -0.0869473211    0.0665147388
H        0.2961272673    1.0112386306    0.3053097492
H        1.0441095732   -0.4477634636   -1.2554770436
3    
Iteration 4 Energy -74.70361350
O       -0.1228655189   -0.0874735061    0.0662943783
H        0.2956994422    1.0111460824    0.3056637211
H        1.0446269570   -0.4471447387   -1.2556106525
3    
Iteration 5 Energy -74.70356807
O       -0.1228987152   -0.0877713679    0.0661529192
H        0.2954042496    1.0110222345    0.3058730749
H        1.0449552813   -0.4467230415   -1.2556785439
3    
Iteration 6 Energy -74.70355223
O       -0.1229153434   -0.0877997202    0.0661522813
H        0.2954189046    1.0110458718    0.3058728148
H        1.0449572083   -0.4467183354   -1.2556776448
3    
Iteration 7 Energy -74.70354668
O       -0.1229140553   -0.0878056595    0.0661475862
H        0.2954150455    1.0110587609    0.3058839616
H        1.0449597257   -0.4467252946   -1.2556840932
3    
Iteration 8 Energy -74.70354459
O       -0.1229144735   -0.0878065520    0.0661474505
H        0.2954165342    1.0110640629    0.3058856041
H        1.0449585975   -0.4467297134   -1.2556855967
3    
Iteration 9 Energy -74.70354381
O       -0.1229148081   -0.0878073088    0.0661473131
H        0.2954165852    1.0110654236    0.3058863277
H        1.0449588210   -0.4467303271   -1.2556861799
