3    
Iteration 0 Energy -74.66601215
O       -0.0859698290   -0.0636457750    0.0449685530
H        0.2311258930    0.9498998500    0.3316313670
H        1.1689722790   -0.5505579440   -1.4342328680
3    
Iteration 1 Energy -74.66854740
O       -0.1406989318   -0.0988024517    0.0760935178
H        0.3140917999    0.8925344842    0.2198283762
H        1.1548538640   -0.5042969181   -1.3938938564
3    
Iteration 2 Energy -74.66880802
O       -0.1352214116   -0.0860243423    0.0763651310
H        0.3207810886    0.9042582388    0.2224162924
H        1.1487704183   -0.5165478522   -1.3953236117
3    
Iteration 3 Energy -74.66883215
O       -0.1308292177   -0.0685820850    0.0796023686
H        0.3374225474    0.9170263817    0.2184332536
H        1.1382535011   -0.5316530549   -1.3949506903
3    
Iteration 4 Energy -74.66880275
O       -0.1306841726   -0.0624669398    0.0817243433
H        0.3468986750    0.9195385988    0.2143178773
H        1.1334428428   -0.5359667383   -1.3939539728
3    
Iteration 5 Energy -74.66879669
O       -0.1313804644   -0.0608416098    0.0824852379
H        0.3514641312    0.9188793459    0.2129125301
H        1.1315081908   -0.5364497785   -1.3936317287
3    
Iteration 6 Energy -74.66879776
O       -0.1318189453   -0.0606722034    0.0823688209
H        0.3530354024    0.9179443640    0.2136185808
H        1.1309417332   -0.5360669913   -1.3939265293
3    
Iteration 7 Energy -74.66879897
O       -0.1330091017   -0.0601824869    0.0815738478
H        0.3574111626    0.9150656654    0.2171449093
H        1.1293487043   -0.5348725030   -1.3952921517
3    
Iteration 8 Energy -74.66879989
O       -0.1339111085   -0.0596456197    0.0805668279
H        0.3610521459    0.9125801890    0.2212364000
H        1.1279789694   -0.5338982013   -1.3968343258
