3    
Iteration 0 Energy -74.51147536
O       -0.0859698290   -0.0636457750    0.0449685530
H        0.4329140800    1.5948834300    0.5140531570
H        1.0434780680   -0.5018667270   -1.2863127260
3    
Iteration 1 Energy -74.51280494
O       -0.1294548552   -0.0958389647    0.0677143092
H        0.4702152310    1.5575497716    0.4568026143
H        1.0496619230   -0.4323398859   -1.2518079479
3    
Iteration 2 Energy -74.51331216
O       -0.1292200148   -0.0956535296    0.0675981573
H        0.4702458755    1.5569328563    0.4564149385
H        1.0493963556   -0.4319084367   -1.2513041127
3    
Iteration 3 Energy -74.51349019
O       -0.1290140571   -0.0955064198    0.0674872896
H        0.4701496992    1.5568307426    0.4564472735
H        1.0492864930   -0.4319534632   -1.2512255737
3    
Iteration 4 Energy -74.51354971
O       -0.1289934529   -0.0954954571    0.0674740012
H        0.4701610220    1.5567540853    0.4563919233
H        1.0492544849   -0.4318877982   -1.2511569293
3    
Iteration 5 Energy -74.51357073
O       -0.1289925951   -0.0954966066    0.0674724972
H        0.4701716038    1.5567219711    0.4563631615
H        1.0492429644   -0.4318545643   -1.2511266571
3    
Iteration 6 Energy -74.51357829
O       -0.1289931441   -0.0954974962    0.0674724857
H        0.4701767399    1.5567100713    0.4563513353
H        1.0492382966   -0.4318418052   -1.2511148134
3    
Iteration 7 Energy -74.51358103
O       -0.1289935003   -0.0954977582    0.0674726551
H        0.4701790481    1.5567058603    0.4563466713
H        1.0492362638   -0.4318373624   -1.2511103127
3    
Iteration 8 Energy -74.51358203
O       -0.1289936883   -0.0954977726    0.0674728083
H        0.4701800900    1.5567044119    0.4563448196
H        1.0492353272   -0.4318359298   -1.2511086070
