3    
Iteration 0 Energy -74.65688392
O       -0.0859698290   -0.0636457750    0.0449685530
H        0.1446452420    0.6734783160    0.2534505990
H        1.0434780680   -0.5018667270   -1.2863127260
3    
Iteration 1 Energy -74.65840703
O       -0.1379513004   -0.0897379339    0.0780819846
H        0.2321449958    0.6170491689    0.1385291559
H        1.0257189207   -0.4606060586   -1.2454087185
3    
Iteration 2 Energy -74.65958112
O       -0.1191750247   -0.0764392251    0.0656950992
H        0.2077220305    0.6445798882    0.1804380955
H        1.0285422208   -0.4810207365   -1.2601697219
3    
Iteration 3 Energy -74.65957335
O       -0.1166607857   -0.0719870210    0.0659590993
H        0.2094145855    0.6491677005    0.1825794066
H        1.0264387672   -0.4855407005   -1.2613723448
3    
Iteration 4 Energy -74.65955089
O       -0.1154328905   -0.0679940561    0.0668724607
H        0.2134366003    0.6521378807    0.1819864644
H        1.0238137331   -0.4890222139   -1.2615325087
3    
Iteration 5 Energy -74.65954230
O       -0.1145200954   -0.0634047849    0.0680197349
H        0.2192181684    0.6548791877    0.1806532171
H        1.0204664120   -0.4926873960   -1.2614394405
3    
Iteration 6 Energy -74.65953886
O       -0.1146735662   -0.0629640476    0.0680684319
H        0.2202853676    0.6547561220    0.1806766728
H        1.0200094798   -0.4928461795   -1.2614754768
3    
Iteration 7 Energy -74.65953816
O       -0.1148851151   -0.0628247571    0.0679509249
H        0.2210423248    0.6543516044    0.1811364237
H        1.0197366795   -0.4927134938   -1.2616465427
