3    
Iteration 0 Energy -74.58571011
O       -0.0859698290   -0.0636457750    0.0449685530
H        0.3176065450    1.2263213840    0.4098121340
H        1.1689722790   -0.5505579440   -1.4342328680
3    
Iteration 1 Energy -74.58692555
O       -0.1372829203   -0.0937522178    0.0763891044
H        0.3715527849    1.1874553293    0.3358040572
H        1.1663391107   -0.4815854456   -1.3916453512
3    
Iteration 2 Energy -74.58789389
O       -0.1251593322   -0.0910663477    0.0663929238
H        0.3526784873    1.1920334606    0.3564561591
H        1.1730897883   -0.4888494594   -1.4023012725
3    
Iteration 3 Energy -74.58784550
O       -0.1240495252   -0.0934632109    0.0639422560
H        0.3475764593    1.1905415956    0.3604527647
H        1.1770819693   -0.4849607444   -1.4038472108
3    
Iteration 4 Energy -74.58780021
O       -0.1242948315   -0.0959135862    0.0627522458
H        0.3448892000    1.1885601220    0.3618629951
H        1.1800144761   -0.4805289146   -1.4040674344
3    
Iteration 5 Energy -74.58779057
O       -0.1245342823   -0.0964126479    0.0626905027
H        0.3448008369    1.1881675254    0.3617190864
H        1.1803422475   -0.4796372705   -1.4038617839
3    
Iteration 6 Energy -74.58779281
O       -0.1245662444   -0.0964517835    0.0626982200
H        0.3448648289    1.1881554658    0.3616510653
H        1.1803101791   -0.4795860889   -1.4038014819
3    
Iteration 7 Energy -74.58779423
O       -0.1245661675   -0.0964501783    0.0626990679
H        0.3448854330    1.1881654239    0.3616371982
H        1.1802894564   -0.4795976660   -1.4037884638
3    
Iteration 8 Energy -74.58779469
O       -0.1245540659   -0.0964460048    0.0626899472
H        0.3448742218    1.1881749485    0.3616534104
H        1.1802885312   -0.4796113771   -1.4037955564
