   8
  -227.67702633156762     
 O     -0.2535552      0.4701201      1.0608788
 C     -0.0464051      0.5001474     -0.3446791
 H      0.8592217     -0.0313212     -0.6096519
 H     -0.8963262      0.0778690     -0.8661508
 C      0.1038039      1.9955147     -0.3616421
 O      0.4630362      2.0418206      1.0124530
 H      0.8914852      2.4111399     -0.9776256
 H     -0.8256700      2.5244220     -0.5324263
