   8
  -227.68151495883555     
 O     -0.5757119     -0.0057182      0.9504277
 C      0.0272232      0.4903144     -0.1934179
 H      1.0374918      0.0908540     -0.2285922
 H     -0.5131927      0.0912548     -1.0499586
 C      0.0471384      2.0071578     -0.2034229
 O      0.7709025      2.5161345      0.8619750
 H      0.4904341      2.3958713     -1.1184932
 H     -0.9611968      2.4067708     -0.1326057
