   8
  -227.68168023000001     
 O     -0.6035725     -0.0365142      0.9343304
 C      0.0402888      0.4899176     -0.1746986
 H      1.0581744      0.1100773     -0.1761605
 H     -0.4592165      0.0917130     -1.0553643
 C      0.0362197      2.0077831     -0.1834239
 O      0.7968065      2.5467221      0.8425830
 H      0.4360468      2.3953942     -1.1180523
 H     -0.9759779      2.3881537     -0.0778461
