   8
  -227.66969377527616     
 O     -0.3636662      0.3129307      1.0435641
 C     -0.0215411      0.4965883     -0.3144422
 H      0.9243011      0.0187357     -0.5402021
 H     -0.8045224      0.0771353     -0.9354047
 C      0.0823783      1.9994408     -0.3289316
 O      0.5705057      2.1987284      0.9814041
 H      0.7926690      2.4111094     -1.0364705
 H     -0.8827534      2.4752290     -0.4557162
