   8
  -227.79177269961608     
 O     -0.4977610     -0.2360893      0.9671310
 C      0.1439117     -0.0579980     -0.0347436
 H      1.2242678      0.0623231     -0.0101064
 H     -0.3311832     -0.0264791     -1.0162452
 C     -0.1438030      2.5595770     -0.0356539
 O      0.4977062      2.7348531      0.9667263
 H      0.3311481      2.5234973     -1.0168488
 H     -1.2247555      2.4424086     -0.0122914
