   8
  -227.79564941687497     
 O     -0.4628968     -0.2840443      0.9925341
 C      0.1031440     -0.1510895     -0.0605224
 H      1.1876703     -0.1274663     -0.1319380
 H     -0.4481121     -0.0539114     -0.9969773
 C     -0.1030675      2.6509803     -0.0607990
 O      0.4628058      2.7841161      0.9923348
 H      0.4484251      2.5545901     -0.9972667
 H     -1.1875491      2.6278808     -0.1325587
