   8
  -227.70857494000001     
 O     -0.1459933      0.5545818      1.0790152
 C     -0.0975049      0.4980954     -0.3701251
 H      0.7404724     -0.1171502     -0.7203514
 H     -1.0381680      0.1314356     -0.7934307
 C      0.1517819      1.9972566     -0.3927401
 O      0.3581763      1.9576267      1.0433447
 H      1.0404684      2.3582479     -0.9204093
 H     -0.7197737      2.6090197     -0.6565144
