   8
  -227.77561393937629     
 O     -0.4943053     -0.1603594      0.9605463
 C      0.1436086      0.1054353     -0.0282944
 H      1.2162449      0.2671825      0.0105239
 H     -0.3134860      0.1024654     -1.0166582
 C     -0.1435135      2.3945893     -0.0285045
 O      0.4942074      2.6604779      0.9604193
 H      0.3136107      2.3968617     -1.0166306
 H     -1.2160479      2.2322502      0.0099583
