   8
  -227.71072399733609     
 O     -0.4877160     -0.1180631      0.9661254
 C      0.1227614      0.3475666     -0.0339999
 H      1.2039218      0.3485873     -0.0162719
 H     -0.3127755      0.1710465     -1.0104234
 C     -0.1226186      2.1521112     -0.0341097
 O      0.4876035      2.6182141      0.9659586
 H      0.3125701      2.3301152     -1.0105746
 H     -1.2037292      2.1526218     -0.0173219
