   8
  -227.67314619129149     
 O     -0.4212002      0.1848081      1.0197957
 C     -0.0265765      0.4931795     -0.2787081
 H      0.9131969      0.0009296     -0.5193739
 H     -0.8028509      0.1034776     -0.9374596
 C      0.0912957      2.0033729     -0.2941211
 O      0.6249967      2.3264288      0.9499550
 H      0.7908731      2.3849167     -1.0380589
 H     -0.8694538      2.4933557     -0.4365210
