   8
  -227.68076531763137     
 O     -0.1742143      0.5193914      1.0682722
 C     -0.0875855      0.5007073     -0.3564216
 H      0.7600615     -0.0902112     -0.6869745
 H     -1.0010746      0.1286379     -0.8019009
 C      0.1434302      1.9947874     -0.3778986
 O      0.3850281      1.9926935      1.0291227
 H      1.0026565      2.3609945     -0.9246811
 H     -0.7355808      2.5823933     -0.6208180
