   8
  -227.67013335095288     
 O     -0.3856073      0.2694908      1.0367044
 C     -0.0210489      0.4951588     -0.3036138
 H      0.9252569      0.0190382     -0.5317847
 H     -0.7979711      0.0883802     -0.9415190
 C      0.0830704      2.0009949     -0.3181309
 O      0.5915399      2.2420735      0.9716867
 H      0.7854921      2.3998043     -1.0417010
 H     -0.8827910      2.4750072     -0.4472312
