   8
  -227.67176845338398     
 O     -0.3135847      0.3991688      1.0535381
 C     -0.0287933      0.4992706     -0.3316562
 H      0.9096979      0.0073091     -0.5596111
 H     -0.8309521      0.0607660     -0.9138102
 C      0.0877211      1.9965611     -0.3467754
 O      0.5218575      2.1126372      0.9977577
 H      0.8212969      2.4277527     -1.0180382
 H     -0.8703610      2.4864008     -0.4767437
