   8
  -227.68027214072885     
 O     -0.5229562      0.0497907      0.9785129
 C      0.0021065      0.4911973     -0.2262175
 H      0.9896821      0.0555307     -0.3408805
 H     -0.6288479      0.0967005     -1.0187115
 C      0.0684928      2.0058521     -0.2387021
 O      0.7215820      2.4610122      0.8962957
 H      0.6089446      2.3906283     -1.0998707
 H     -0.9259655      2.4407899     -0.2500122
