3    
Iteration 0 Energy -74.67194484
O       -0.0859698290   -0.0636457750    0.0449685530
H        0.2599527770    1.0420403610    0.3576916220
H        1.1062251740   -0.5262123350   -1.3602727970
3    
Iteration 1 Energy -74.67311441
O       -0.1467442775   -0.0961384116    0.0840220351
H        0.3272824174    0.9962626477    0.2669092822
H        1.0996699628   -0.4479419815   -1.3085439470
3    
Iteration 2 Energy -74.67484640
O       -0.1250516640   -0.0871193150    0.0685841695
H        0.2996246222    1.0094441517    0.3009333079
H        1.1056351131   -0.4701425891   -1.3271301034
3    
Iteration 3 Energy -74.67460246
O       -0.1239419179   -0.0881816275    0.0669090390
H        0.2964786794    1.0097409143    0.3041044827
H        1.1076712687   -0.4693770451   -1.3286261434
3    
Iteration 4 Energy -74.67448469
O       -0.1240034252   -0.0892182942    0.0663652692
H        0.2953482608    1.0092420894    0.3048921138
H        1.1088631449   -0.4678415613   -1.3288700004
3    
Iteration 5 Energy -74.67444210
O       -0.1241340362   -0.0897485561    0.0661816268
H        0.2949507522    1.0089123138    0.3050793521
H        1.1093912037   -0.4669815332   -1.3288735919
3    
Iteration 6 Energy -74.67442937
O       -0.1241561078   -0.0897911555    0.0661778988
H        0.2949726475    1.0089284025    0.3050678080
H        1.1093913379   -0.4669550291   -1.3288583168
3    
Iteration 7 Energy -74.67442502
O       -0.1241536118   -0.0898064544    0.0661666149
H        0.2949594593    1.0089356008    0.3050845413
H        1.1094019802   -0.4669469359   -1.3288637625
3    
Iteration 8 Energy -74.67442332
O       -0.1241525092   -0.0898071867    0.0661651232
H        0.2949605070    1.0089423796    0.3050874623
H        1.1093997758   -0.4669529899   -1.3288651875
3    
Iteration 9 Energy -74.67442266
O       -0.1241526414   -0.0898085058    0.0661644674
H        0.2949601331    1.0089436829    0.3050885590
H        1.1094002265   -0.4669529829   -1.3288656244
