3    
Iteration 0 Energy -74.76497834
O       -0.0859698290   -0.0636457750    0.0449685530
H        0.2599527770    1.0420403610    0.3576916220
H        0.9179838580   -0.4531755100   -1.1383925830
3    
Iteration 1 Energy -74.76577093
O       -0.1463068936   -0.1002086046    0.0812399453
H        0.3216834863    0.9932729000    0.2705093711
H        0.9165902093   -0.3678452199   -1.0874817391
3    
Iteration 2 Energy -74.76826375
O       -0.1205184516   -0.0847380272    0.0656465366
H        0.2950737507    1.0131257374    0.3074107109
H        0.9174114664   -0.4031686464   -1.1087896676
3    
Iteration 3 Energy -74.76788910
O       -0.1195786801   -0.0843694488    0.0649648514
H        0.2939982946    1.0146459703    0.3093191075
H        0.9175471114   -0.4050574705   -1.1100163795
3    
Iteration 4 Energy -74.76772807
O       -0.1197021946   -0.0844986786    0.0650074848
H        0.2940918888    1.0148662332    0.3093578045
H        0.9175769938   -0.4051485160   -1.1100977101
3    
Iteration 5 Energy -74.76767149
O       -0.1197198400   -0.0845109003    0.0650171880
H        0.2941138974    1.0149723548    0.3093984290
H        0.9175725792   -0.4052424339   -1.1101480389
3    
Iteration 6 Energy -74.76765106
O       -0.1197311679   -0.0845170673    0.0650243880
H        0.2941254557    1.0150049398    0.3094063101
H        0.9175722934   -0.4052688712   -1.1101631204
3    
Iteration 7 Energy -74.76764381
O       -0.1197350956   -0.0845204875    0.0650261303
H        0.2941266682    1.0150145857    0.3094107372
H        0.9175749551   -0.4052751149   -1.1101692921
3    
Iteration 8 Energy -74.76764126
O       -0.1197364215   -0.0845224544    0.0650262381
H        0.2941256645    1.0150171416    0.3094131646
H        0.9175772300   -0.4052757236   -1.1101718279
3    
Iteration 9 Energy -74.76764036
O       -0.1197368759   -0.0845233790    0.0650261191
H        0.2941248922    1.0150178079    0.3094142742
H        0.9175783985   -0.4052754855   -1.1101728188
