3    
Iteration 0 Energy -74.91590140
O       -0.0859698290   -0.0636457750    0.0449685530
H        0.1734721260    0.7656188270    0.2795108550
H        0.6669954360   -0.3557930760   -0.8425522990
3    
Iteration 1 Energy -74.91023275
O       -0.1425672185   -0.1073473402    0.0727313596
H        0.2471761360    0.6981587960    0.1708493875
H        0.6584421689   -0.3002122727   -0.8021029820
3    
Iteration 2 Energy -74.91675151
O       -0.1148064299   -0.0850207597    0.0591793329
H        0.2147277511    0.7359453264    0.2239417749
H        0.6607859645   -0.3302688306   -0.8218731593
3    
Iteration 3 Energy -74.91721725
O       -0.1010708089   -0.0715017132    0.0560245326
H        0.2039216090    0.7542175885    0.2433679104
H        0.6593212661   -0.3461645006   -0.8300088278
3    
Iteration 4 Energy -74.91711437
O       -0.1016965793   -0.0690181393    0.0566410120
H        0.2075612815    0.7557594055    0.2413030251
H        0.6578143594   -0.3481772045   -0.8292846317
3    
Iteration 5 Energy -74.91708476
O       -0.1015355134   -0.0656673333    0.0577268800
H        0.2124004209    0.7581096061    0.2389308168
H        0.6553143549   -0.3510277267   -0.8286414743
3    
Iteration 6 Energy -74.91707602
O       -0.1014056589   -0.0655037717    0.0578796244
H        0.2127577878    0.7582044595    0.2390040780
H        0.6550707931   -0.3511569430   -0.8287544833
3    
Iteration 7 Energy -74.91707375
O       -0.1013994623   -0.0654425381    0.0578840668
H        0.2130142257    0.7581253305    0.2392127570
H        0.6549395461   -0.3511480094   -0.8288610527
3    
Iteration 8 Energy -74.91707313
O       -0.1014924263   -0.0653383496    0.0577795951
H        0.2136046545    0.7578165554    0.2397955367
H        0.6546910186   -0.3510457542   -0.8291002329
