3    
Iteration 0 Energy -74.86339157
O       -0.0859698290   -0.0636457750    0.0449685530
H        0.1446452420    0.6734783160    0.2534505990
H        0.6669954360   -0.3557930760   -0.8425522990
3    
Iteration 1 Energy -74.85465141
O       -0.1411028018   -0.1020540947    0.0741375154
H        0.2215855252    0.6078758860    0.1430571885
H        0.6560918373   -0.3037876880   -0.8019400860
3    
Iteration 2 Energy -74.86284448
O       -0.1148743041   -0.0855053073    0.0596866294
H        0.1840460603    0.6434905087    0.1986003975
H        0.6617472926   -0.3298693996   -0.8224862420
3    
Iteration 3 Energy -74.86414193
O       -0.1003639314   -0.0734781147    0.0526544788
H        0.1667556827    0.6605552041    0.2252143931
H        0.6631373134   -0.3444153403   -0.8322771617
3    
Iteration 4 Energy -74.86414475
O       -0.0978274972   -0.0694994208    0.0526908385
H        0.1671842748    0.6648449790    0.2273304388
H        0.6616548649   -0.3485495653   -0.8333533636
3    
Iteration 5 Energy -74.86412737
O       -0.0974808725   -0.0677781634    0.0532575013
H        0.1692417833    0.6663132767    0.2263689589
H        0.6604528645   -0.3501443321   -0.8331559537
3    
Iteration 6 Energy -74.86412156
O       -0.0970608796   -0.0652197489    0.0541686591
H        0.1727255118    0.6683764262    0.2246135397
H        0.6585011682   -0.3524550908   -0.8327338220
3    
Iteration 7 Energy -74.86411942
O       -0.0970855751   -0.0651884375    0.0541877209
H        0.1728617449    0.6683546234    0.2246080333
H        0.6584454647   -0.3524598357   -0.8327405974
3    
Iteration 8 Energy -74.86411882
O       -0.0971052607   -0.0651777443    0.0541777638
H        0.1729482370    0.6683093353    0.2246706951
H        0.6584121520   -0.3524425251   -0.8327669483
