3    
Iteration 0 Energy -74.45630249
O       -0.0859698290   -0.0636457750    0.0449685530
H        0.4329140800    1.5948834300    0.5140531570
H        1.1689722790   -0.5505579440   -1.4342328680
3    
Iteration 1 Energy -74.45738626
O       -0.1211284799   -0.0881345960    0.0642539027
H        0.4649883579    1.5664044043    0.4669302399
H        1.1720566234   -0.4975900991   -1.4063953024
3    
Iteration 2 Energy -74.45780174
O       -0.1339102324   -0.0991719267    0.0700245757
H        0.4739137668    1.5528875944    0.4505679777
H        1.1759127274   -0.4730360844   -1.3958036877
3    
Iteration 3 Energy -74.45818556
O       -0.1402126457   -0.1059775905    0.0720776642
H        0.4767405235    1.5445655616    0.4430376810
H        1.1793878988   -0.4579086340   -1.3903264319
3    
Iteration 4 Energy -74.45848260
O       -0.1424532971   -0.1090223019    0.0724442611
H        0.4771261379    1.5408160871    0.4404912962
H        1.1812423444   -0.4511147416   -1.3881465882
3    
Iteration 5 Energy -74.45865711
O       -0.1426971600   -0.1096883686    0.0722895964
H        0.4768926770    1.5399240430    0.4401953966
H        1.1817191432   -0.4495568881   -1.3876959770
3    
Iteration 6 Energy -74.45872977
O       -0.1425443715   -0.1097466352    0.0721099993
H        0.4766285680    1.5398286504    0.4403916250
H        1.1818299595   -0.4494034762   -1.3877125629
3    
Iteration 7 Energy -74.45875266
O       -0.1422065421   -0.1095655330    0.0718930248
H        0.4762788791    1.5400635497    0.4408612788
H        1.1818409290   -0.4498199144   -1.3879651634
3    
Iteration 8 Energy -74.45875190
O       -0.1421866103   -0.1095545286    0.0718803377
H        0.4762682273    1.5400886442    0.4408859309
H        1.1818312225   -0.4498562228   -1.3879770898
