3    
Iteration 0 Energy -74.60785259
O       -0.0859698290   -0.0636457750    0.0449685530
H        0.3464334290    1.3184618950    0.4358723900
H        1.0434780680   -0.5018667270   -1.2863127260
3    
Iteration 1 Energy -74.60905984
O       -0.1433275510   -0.1013845647    0.0777161931
H        0.4016742871    1.2714101131    0.3558738777
H        1.0455949154   -0.4170761586   -1.2390618666
3    
Iteration 2 Energy -74.61045969
O       -0.1254218693   -0.0921469707    0.0660152083
H        0.3810161681    1.2831458181    0.3823854206
H        1.0483473127   -0.4380494741   -1.2538724239
3    
Iteration 3 Energy -74.61029215
O       -0.1238131711   -0.0924604449    0.0642995574
H        0.3777299502    1.2837284664    0.3858565416
H        1.0500247876   -0.4383186660   -1.2556278966
3    
Iteration 4 Energy -74.61019413
O       -0.1237996885   -0.0930911268    0.0639202243
H        0.3769318055    1.2834210520    0.3864387278
H        1.0508094020   -0.4373805894   -1.2558307519
3    
Iteration 5 Energy -74.61016007
O       -0.1238729830   -0.0934161687    0.0638012067
H        0.3766735842    1.2832124391    0.3865636391
H        1.0511408566   -0.4368469599   -1.2558366492
3    
Iteration 6 Energy -74.61015040
O       -0.1238809613   -0.0934425398    0.0637934776
H        0.3766761737    1.2832211712    0.3865662323
H        1.0511462020   -0.4368293378   -1.2558315153
3    
Iteration 7 Energy -74.61014704
O       -0.1238836132   -0.0934453736    0.0637943448
H        0.3766848187    1.2832293341    0.3865627214
H        1.0511401574   -0.4368346881   -1.2558288742
3    
Iteration 8 Energy -74.61014585
O       -0.1238833733   -0.0934449473    0.0637943542
H        0.3766871260    1.2832334654    0.3865629107
H        1.0511375671   -0.4368392636   -1.2558290747
3    
Iteration 9 Energy -74.61014540
O       -0.1238830004   -0.0934440235    0.0637945245
H        0.3766882553    1.2832356123    0.3865630712
H        1.0511360241   -0.4368423507   -1.2558294081
