3    
Iteration 0 Energy -74.70381875
O       -0.0859698290   -0.0636457750    0.0449685530
H        0.2887796610    1.1341808730    0.3837518780
H        0.9807309630   -0.4775211190   -1.2123526540
3    
Iteration 1 Energy -74.70480976
O       -0.1464644478   -0.1009502151    0.0809590242
H        0.3499675804    1.0853523928    0.2970517629
H        0.9800376511   -0.3913882016   -1.1616430234
3    
Iteration 2 Energy -74.70694876
O       -0.1225562629   -0.0881383916    0.0656130017
H        0.3231602398    1.1021757648    0.3323812734
H        0.9829367702   -0.4210234098   -1.1816265097
3    
Iteration 3 Energy -74.70661099
O       -0.1213085592   -0.0883534657    0.0642986392
H        0.3207451337    1.1031520072    0.3352506728
H        0.9841041327   -0.4217845934   -1.1831815485
3    
Iteration 4 Energy -74.70645687
O       -0.1213668434   -0.0887680734    0.0641132683
H        0.3203716607    1.1031333898    0.3355958301
H        0.9845358473   -0.4213513835   -1.1833413367
3    
Iteration 5 Energy -74.70640267
O       -0.1214085365   -0.0889443483    0.0640505679
H        0.3202417429    1.1030970086    0.3356985016
H        0.9847074032   -0.4211387466   -1.1833813106
3    
Iteration 6 Energy -74.70638417
O       -0.1214164591   -0.0889711199    0.0640425505
H        0.3202329792    1.1031165940    0.3357182177
H        0.9847240424   -0.4211315774   -1.1833930119
3    
Iteration 7 Energy -74.70637760
O       -0.1214190172   -0.0889725542    0.0640441425
H        0.3202396184    1.1031300320    0.3357196807
H        0.9847199099   -0.4211435994   -1.1833960685
3    
Iteration 8 Energy -74.70637524
O       -0.1214200373   -0.0889719201    0.0640454680
H        0.3202431896    1.1031354183    0.3357193896
H        0.9847173018   -0.4211496407   -1.1833971064
3    
Iteration 9 Energy -74.70637439
O       -0.1214204448   -0.0889722660    0.0640456433
H        0.3202435443    1.1031366905    0.3357197790
H        0.9847173103   -0.4211505832   -1.1833976727
