3    
Iteration 0 Energy -74.61735612
O       -0.0859698290   -0.0636457750    0.0449685530
H        0.2887796610    1.1341808730    0.3837518780
H        1.1689722790   -0.5505579440   -1.4342328680
3    
Iteration 1 Energy -74.61851355
O       -0.1416776204   -0.0944377954    0.0801801562
H        0.3495342071    1.0926118836    0.3016830339
H        1.1639255032   -0.4781969323   -1.3873756341
3    
Iteration 2 Energy -74.61980263
O       -0.1249621366   -0.0894896274    0.0671212626
H        0.3253389361    1.1005711841    0.3293720345
H        1.1714052616   -0.4911044098   -1.4020057401
3    
Iteration 3 Energy -74.61965454
O       -0.1239220986   -0.0917651681    0.0648075994
H        0.3206094331    1.0994639100    0.3332369782
H        1.1750946893   -0.4877216037   -1.4035570197
3    
Iteration 4 Energy -74.61957243
O       -0.1241240052   -0.0942625441    0.0635488996
H        0.3177885057    1.0975667794    0.3348236160
H        1.1781174651   -0.4833271122   -1.4038849559
3    
Iteration 5 Energy -74.61954645
O       -0.1243691140   -0.0948328267    0.0634511629
H        0.3176161282    1.0971536677    0.3347478658
H        1.1785349073   -0.4823437285   -1.4037114670
3    
Iteration 6 Energy -74.61954252
O       -0.1244015930   -0.0948802657    0.0634545472
H        0.3176714555    1.0971498393    0.3346928851
H        1.1785120213   -0.4822924712   -1.4036598704
3    
Iteration 7 Energy -74.61954169
O       -0.1244009483   -0.0948830074    0.0634523276
H        0.3176855444    1.0971616367    0.3346862959
H        1.1784972475   -0.4823015374   -1.4036510614
