3    
Iteration 0 Energy -74.73651062
O       -0.0859698290   -0.0636457750    0.0449685530
H        0.2887796610    1.1341808730    0.3837518780
H        0.9179838580   -0.4531755100   -1.1383925830
3    
Iteration 1 Energy -74.73735105
O       -0.1461920136   -0.1023813838    0.0798677132
H        0.3478225482    1.0843160618    0.2984943646
H        0.9191631495   -0.3645750937   -1.0880342445
3    
Iteration 2 Energy -74.73975886
O       -0.1209880193   -0.0872807382    0.0646164244
H        0.3216356602    1.1034425765    0.3345706889
H        0.9201460072   -0.3988022687   -1.1088592787
3    
Iteration 3 Energy -74.73937200
O       -0.1198640157   -0.0871141825    0.0636417269
H        0.3198860338    1.1047234524    0.3369827324
H        0.9207715912   -0.4002497177   -1.1102966282
3    
Iteration 4 Energy -74.73920288
O       -0.1199392147   -0.0873445549    0.0635795369
H        0.3197495616    1.1048471787    0.3371846827
H        0.9209832246   -0.4001430897   -1.1104363919
3    
Iteration 5 Energy -74.73914338
O       -0.1199769540   -0.0874277963    0.0635671288
H        0.3197169208    1.1048835622    0.3372369090
H        0.9210535535   -0.4000962555   -1.1104762135
3    
Iteration 6 Energy -74.73912272
O       -0.1199861667   -0.0874442029    0.0635663645
H        0.3197143668    1.1049073296    0.3372531349
H        0.9210652696   -0.4001036391   -1.1104916786
3    
Iteration 7 Energy -74.73911542
O       -0.1199898297   -0.0874456220    0.0635690170
H        0.3197194584    1.1049188492    0.3372549599
H        0.9210637892   -0.4001137646   -1.1104961617
3    
Iteration 8 Energy -74.73911284
O       -0.1199912885   -0.0874448990    0.0635708142
H        0.3197228152    1.1049236370    0.3372545259
H        0.9210618336   -0.4001193019   -1.1104975299
3    
Iteration 9 Energy -74.73911193
O       -0.1199917895   -0.0874449637    0.0635712428
H        0.3197233565    1.1049249284    0.3372547491
H        0.9210617513   -0.4001205485   -1.1104981855
