3    
Iteration 0 Energy -74.67315498
O       -0.0859698290   -0.0636457750    0.0449685530
H        0.2022990090    0.8577593390    0.3055711110
H        1.1689722790   -0.5505579440   -1.4342328680
3    
Iteration 1 Energy -74.67571386
O       -0.1395572629   -0.0952349447    0.0769223380
H        0.2873686642    0.8017281540    0.1926937991
H        1.1532311550   -0.5067477596   -1.3937711046
3    
Iteration 2 Energy -74.67598057
O       -0.1316754329   -0.0830171512    0.0744697269
H        0.2872026197    0.8157971541    0.2033193008
H        1.1493732215   -0.5198911511   -1.3978575373
3    
Iteration 3 Energy -74.67598690
O       -0.1284234416   -0.0730120073    0.0755523423
H        0.2949274578    0.8238532656    0.2035383230
H        1.1438847432   -0.5289217687   -1.3985083356
3    
Iteration 4 Energy -74.67597129
O       -0.1269907671   -0.0641874011    0.0776107867
H        0.3055431807    0.8290217112    0.2004349066
H        1.1378604541   -0.5359182802   -1.3979858171
3    
Iteration 5 Energy -74.67596192
O       -0.1272101594   -0.0610876305    0.0786586584
H        0.3112671771    0.8296171529    0.1985961494
H        1.1351080728   -0.5377658740   -1.3975903469
3    
Iteration 6 Energy -74.67596123
O       -0.1276160270   -0.0607977178    0.0787017266
H        0.3129709625    0.8288327208    0.1988752673
H        1.1344590517   -0.5375186045   -1.3977514182
