3    
Iteration 0 Energy -74.61217410
O       -0.0859698290   -0.0636457750    0.0449685530
H        0.3176065450    1.2263213840    0.4098121340
H        1.1062251740   -0.5262123350   -1.3602727970
3    
Iteration 1 Energy -74.61334397
O       -0.1427894719   -0.0980071689    0.0791658278
H        0.3759816292    1.1818689264    0.3283362067
H        1.1046697128   -0.4473984839   -1.3129941550
3    
Iteration 2 Energy -74.61471999
O       -0.1251160051   -0.0910761017    0.0663459512
H        0.3526743719    1.1916735454    0.3562509564
H        1.1103034697   -0.4641341833   -1.3280890280
3    
Iteration 3 Energy -74.61455344
O       -0.1237362594   -0.0924547453    0.0642296163
H        0.3484705965    1.1913680202    0.3600806410
H        1.1131274585   -0.4624500290   -1.3298023798
3    
Iteration 4 Energy -74.61446004
O       -0.1237531680   -0.0938450219    0.0634378758
H        0.3467647272    1.1904404044    0.3611677264
H        1.1148501840   -0.4601321547   -1.3300977269
3    
Iteration 5 Energy -74.61442834
O       -0.1239112225   -0.0943120399    0.0633171548
H        0.3465202643    1.1901148268    0.3612115585
H        1.1152526520   -0.4593395762   -1.3300208440
3    
Iteration 6 Energy -74.61442118
O       -0.1239334600   -0.0943485218    0.0633171428
H        0.3465542973    1.1901183031    0.3611811218
H        1.1152408129   -0.4593065849   -1.3299903969
3    
Iteration 7 Energy -74.61441901
O       -0.1239347201   -0.0943500161    0.0633174655
H        0.3465680506    1.1901296222    0.3611745743
H        1.1152282752   -0.4593164248   -1.3299841735
3    
Iteration 8 Energy -74.61441820
O       -0.1239322965   -0.0943473762    0.0633166747
H        0.3465711133    1.1901367710    0.3611757913
H        1.1152227319   -0.4593262339   -1.3299846030
