3    
Iteration 0 Energy -74.57462946
O       -0.0859698290   -0.0636457750    0.0449685530
H        0.3752603130    1.4106024070    0.4619326450
H        1.0434780680   -0.5018667270   -1.2863127260
3    
Iteration 1 Energy -74.57596975
O       -0.1385941092   -0.0998415116    0.0741006118
H        0.4240062645    1.3667800609    0.3900019536
H        1.0473563796   -0.4218486485   -1.2435141055
3    
Iteration 2 Energy -74.57694680
O       -0.1264730476   -0.0933607109    0.0663119484
H        0.4103392302    1.3745227894    0.4075290693
H        1.0489023047   -0.4360721971   -1.2532525565
3    
Iteration 3 Energy -74.57691303
O       -0.1250645674   -0.0934491534    0.0649179124
H        0.4076859558    1.3749604987    0.4103126235
H        1.0501470480   -0.4364214846   -1.2546420774
3    
Iteration 4 Energy -74.57686942
O       -0.1250179758   -0.0939141757    0.0646032779
H        0.4070303072    1.3746913988    0.4107812409
H        1.0507560519   -0.4356873845   -1.2547960622
3    
Iteration 5 Energy -74.57685446
O       -0.1250672142   -0.0941871753    0.0644915654
H        0.4067888923    1.3744932014    0.4108961853
H        1.0510466345   -0.4352162163   -1.2547992974
3    
Iteration 6 Energy -74.57685117
O       -0.1250732401   -0.0942060688    0.0644863200
H        0.4067946595    1.3744951332    0.4108917978
H        1.0510468457   -0.4351992748   -1.2547896662
3    
Iteration 7 Energy -74.57685008
O       -0.1250755149   -0.0942092775    0.0644866089
H        0.4068011347    1.3744983290    0.4108874675
H        1.0510425856   -0.4351992867   -1.2547856262
3    
Iteration 8 Energy -74.57684971
O       -0.1250759905   -0.0942072082    0.0644882379
H        0.4068067851    1.3745021147    0.4108842532
H        1.0510373013   -0.4352051870   -1.2547840448
