3    
Iteration 0 Energy -74.63873099
O       -0.0859698290   -0.0636457750    0.0449685530
H        0.3464334290    1.3184618950    0.4358723900
H        0.9807309630   -0.4775211190   -1.2123526540
3    
Iteration 1 Energy -74.63969021
O       -0.1483100019   -0.1061613881    0.0796900802
H        0.4047244395    1.2655889230    0.3495838400
H        0.9847801109   -0.3821325388   -1.1607856468
3    
Iteration 2 Energy -74.64170321
O       -0.1245930930   -0.0916098235    0.0655372967
H        0.3804309878    1.2835244422    0.3831632557
H        0.9853566143   -0.4146196390   -1.1802122773
3    
Iteration 3 Energy -74.64137709
O       -0.1227464331   -0.0911647884    0.0640355530
H        0.3776521839    1.2850559884    0.3867020569
H        0.9862887172   -0.4165962402   -1.1822493373
3    
Iteration 4 Energy -74.64121302
O       -0.1228202768   -0.0915162918    0.0639016869
H        0.3773404056    1.2850445154    0.3869925778
H        0.9866742983   -0.4162332825   -1.1824059954
3    
Iteration 5 Energy -74.64115648
O       -0.1228706731   -0.0916792144    0.0638550436
H        0.3772265578    1.2850000644    0.3870752562
H        0.9868384851   -0.4160259350   -1.1824420350
3    
Iteration 6 Energy -74.64113771
O       -0.1228756212   -0.0917140756    0.0638394912
H        0.3771951284    1.2850068374    0.3871091374
H        0.9868748126   -0.4159978690   -1.1824603677
3    
Iteration 7 Energy -74.64113112
O       -0.1228782566   -0.0917196991    0.0638387237
H        0.3771947904    1.2850147877    0.3871140672
H        0.9868777413   -0.4160002157   -1.1824645341
3    
Iteration 8 Energy -74.64112880
O       -0.1228795838   -0.0917192085    0.0638402647
H        0.3771984912    1.2850194604    0.3871132449
H        0.9868753310   -0.4160053968   -1.1824652554
3    
Iteration 9 Energy -74.64112797
O       -0.1228802812   -0.0917178041    0.0638417355
H        0.3772016893    1.2850219936    0.3871116587
H        0.9868727935   -0.4160093509   -1.1824651435
