3    
Iteration 0 Energy -74.81388819
O       -0.0859698290   -0.0636457750    0.0449685530
H        0.1734721260    0.7656188270    0.2795108550
H        0.8552367520   -0.4288299020   -1.0644325120
3    
Iteration 1 Energy -74.81385058
O       -0.1409986900   -0.0998609707    0.0754764460
H        0.2541071718    0.7036771950    0.1675584639
H        0.8424336681   -0.3797514770   -1.0237102692
3    
Iteration 2 Energy -74.81644395
O       -0.1141103142   -0.0744860160    0.0624752968
H        0.2284466935    0.7430869244    0.2174748248
H        0.8418196872   -0.4121438021   -1.0421678627
3    
Iteration 3 Energy -74.81632168
O       -0.1115533463   -0.0695061049    0.0639356341
H        0.2319349051    0.7480204874    0.2177405014
H        0.8387970637   -0.4171005197   -1.0430308556
3    
Iteration 4 Energy -74.81627016
O       -0.1109073550   -0.0661308076    0.0649828181
H        0.2361079016    0.7503766765    0.2162917205
H        0.8363875249   -0.4199662359   -1.0428300372
3    
Iteration 5 Energy -74.81625478
O       -0.1109559811   -0.0646862570    0.0653720561
H        0.2385119222    0.7509751730    0.2156019534
H        0.8352097787   -0.4209877287   -1.0426797480
3    
Iteration 6 Energy -74.81625127
O       -0.1110823901   -0.0645617139    0.0653249318
H        0.2390175216    0.7507793439    0.2158230941
H        0.8350201459   -0.4209520627   -1.0427667390
3    
Iteration 7 Energy -74.81625043
O       -0.1113560753   -0.0643919164    0.0651145894
H        0.2400529651    0.7501893115    0.2166705361
H        0.8346391552   -0.4207418775   -1.0430852375
