3    
Iteration 0 Energy -74.57905066
O       -0.0859698290   -0.0636457750    0.0449685530
H        0.3464334290    1.3184618950    0.4358723900
H        1.1062251740   -0.5262123350   -1.3602727970
3    
Iteration 1 Energy -74.58033548
O       -0.1382494710   -0.0969284892    0.0754647723
H        0.3981579162    1.2769339936    0.3624355839
H        1.1067803104   -0.4514017210   -1.3173322204
3    
Iteration 2 Energy -74.58131748
O       -0.1259059699   -0.0924775328    0.0662845977
H        0.3813029754    1.2830265840    0.3820427328
H        1.1112917109   -0.4619452846   -1.3277591940
3    
Iteration 3 Energy -74.58127475
O       -0.1245624788   -0.0937137506    0.0642855812
H        0.3772935368    1.2825319793    0.3855773098
H        1.1139576129   -0.4602144814   -1.3292947575
3    
Iteration 4 Energy -74.58122970
O       -0.1245570959   -0.0949944589    0.0635362590
H        0.3756754207    1.2815909862    0.3865729796
H        1.1155702897   -0.4579928030   -1.3295411085
3    
Iteration 5 Energy -74.58121601
O       -0.1247043880   -0.0953946372    0.0634441240
H        0.3754953410    1.2812855467    0.3865671424
H        1.1158976089   -0.4572872062   -1.3294431388
3    
Iteration 6 Energy -74.58121519
O       -0.1247256025   -0.0954255194    0.0634463892
H        0.3755318143    1.2812795386    0.3865288725
H        1.1158823066   -0.4572503335   -1.3294071366
