3    
Iteration 0 Energy -74.89573118
O       -0.0859698290   -0.0636457750    0.0449685530
H        0.2599527770    1.0420403610    0.3576916220
H        0.6669954360   -0.3557930760   -0.8425522990
3    
Iteration 1 Energy -74.89399155
O       -0.1445114656   -0.1069861461    0.0755903419
H        0.3110954250    0.9885998739    0.2778872082
H        0.6743944581   -0.2590122344   -0.7933696992
3    
Iteration 2 Energy -74.89877086
O       -0.1148541001   -0.0849974416    0.0600963349
H        0.2853916461    1.0149077847    0.3176758163
H        0.6704408589   -0.3073088726   -0.8176643028
3    
Iteration 3 Energy -74.89832189
O       -0.1103747170   -0.0817207117    0.0577303962
H        0.2812263980    1.0199016671    0.3245479739
H        0.6701267273   -0.3155795346   -0.8221705401
3    
Iteration 4 Energy -74.89804562
O       -0.1106813436   -0.0819501377    0.0578893698
H        0.2813540245    1.0201303519    0.3245591562
H        0.6703057327   -0.3155788384   -0.8223407139
3    
Iteration 5 Energy -74.89795168
O       -0.1107324520   -0.0819829519    0.0579190270
H        0.2813508914    1.0202544630    0.3246342339
H        0.6703599808   -0.3156701907   -0.8224454713
3    
Iteration 6 Energy -74.89791880
O       -0.1107566618   -0.0819980781    0.0579333213
H        0.2813540352    1.0202911276    0.3246525323
H        0.6703810545   -0.3156917943   -0.8224780894
3    
Iteration 7 Energy -74.89790743
O       -0.1107640487   -0.0820026262    0.0579377256
H        0.2813533306    1.0203039934    0.3246606804
H        0.6703891521   -0.3157001815   -0.8224906692
3    
Iteration 8 Energy -74.89790348
O       -0.1107667023   -0.0820043440    0.0579392662
H        0.2813528231    1.0203081109    0.3246635626
H        0.6703923225   -0.3157026512   -0.8224951185
3    
Iteration 9 Energy -74.89790211
O       -0.1107676074   -0.0820049373    0.0579397905
H        0.2813525649    1.0203094763    0.3246646101
H        0.6703934936   -0.3157034937   -0.8224967169
3    
Iteration 10 Energy -74.89790164
O       -0.1107679272   -0.0820051313    0.0579399880
H        0.2813524948    1.0203099362    0.3246649499
H        0.6703938896   -0.3157038141   -0.8224972754
