3    
Iteration 0 Energy -74.79502741
O       -0.0859698290   -0.0636457750    0.0449685530
H        0.1446452420    0.6734783160    0.2534505990
H        0.7924896470   -0.4044842930   -0.9904724410
3    
Iteration 1 Energy -74.79175407
O       -0.1401156278   -0.0970852689    0.0759818075
H        0.2262818950    0.6112955611    0.1406690706
H        0.7787442410   -0.3566731499   -0.9495883105
3    
Iteration 2 Energy -74.79659883
O       -0.1138936894   -0.0799212379    0.0605105402
H        0.1906593574    0.6471764998    0.1961712261
H        0.7834445308   -0.3831956237   -0.9696037475
3    
Iteration 3 Energy -74.79677501
O       -0.1041972569   -0.0709355695    0.0584401499
H        0.1833029441    0.6600991449    0.2097540116
H        0.7822745098   -0.3941497435   -0.9753599238
3    
Iteration 4 Energy -74.79670536
O       -0.1044807383   -0.0685717930    0.0589356330
H        0.1864606136    0.6615382327    0.2082394234
H        0.7808374115   -0.3960511405   -0.9748503565
3    
Iteration 5 Energy -74.79668277
O       -0.1041486732   -0.0652730491    0.0596879246
H        0.1906544070    0.6637469410    0.2067267137
H        0.7785744728   -0.3988047877   -0.9744701138
3    
Iteration 6 Energy -74.79667612
O       -0.1040395496   -0.0650602808    0.0597970164
H        0.1910775891    0.6638281181    0.2068603858
H        0.7783083141   -0.3989517194   -0.9745914793
3    
Iteration 7 Energy -74.79667444
O       -0.1040188843   -0.0649504402    0.0598066423
H        0.1915103456    0.6637043531    0.2072005393
H        0.7780815918   -0.3989446830   -0.9747663386
3    
Iteration 8 Energy -74.79667380
O       -0.1041177597   -0.0648487138    0.0596951385
H        0.1921799535    0.6633336134    0.2078779256
H        0.7777962029   -0.3988100232   -0.9750492167
