3    
Iteration 0 Energy -74.70453130
O       -0.0859698290   -0.0636457750    0.0449685530
H        0.3176065450    1.2263213840    0.4098121340
H        0.9179838580   -0.4531755100   -1.1383925830
3    
Iteration 1 Energy -74.70546918
O       -0.1459923067   -0.1043286717    0.0785457272
H        0.3740374499    1.1754345307    0.3264507397
H        0.9215754226   -0.3616057663   -1.0886083782
3    
Iteration 2 Energy -74.70768317
O       -0.1219092334   -0.0891665607    0.0643986632
H        0.3498930145    1.1941027646    0.3603138433
H        0.9216367474   -0.3954361275   -1.1083244170
3    
Iteration 3 Energy -74.70732305
O       -0.1206115686   -0.0888355687    0.0633539791
H        0.3479706953    1.1954326915    0.3629190366
H        0.9222613635   -0.3970970669   -1.1098849305
3    
Iteration 4 Energy -74.70715963
O       -0.1206732797   -0.0890592996    0.0632827910
H        0.3477962357    1.1955240711    0.3631384169
H        0.9224974960   -0.3969647358   -1.1100331278
3    
Iteration 5 Energy -74.70710241
O       -0.1207178650   -0.0891515422    0.0632716813
H        0.3477583795    1.1955371464    0.3631820802
H        0.9225798861   -0.3968855956   -1.1100656863
3    
Iteration 6 Energy -74.70708296
O       -0.1207256437   -0.0891685712    0.0632691896
H        0.3477509920    1.1955559116    0.3632000131
H        0.9225950078   -0.3968873560   -1.1100811317
3    
Iteration 7 Energy -74.70707612
O       -0.1207291018   -0.0891700881    0.0632715919
H        0.3477553185    1.1955658580    0.3632016547
H        0.9225940890   -0.3968958128   -1.1100851799
3    
Iteration 8 Energy -74.70707371
O       -0.1207305267   -0.0891693943    0.0632733438
H        0.3477585491    1.1955701281    0.3632010454
H        0.9225922426   -0.3969007985   -1.1100863271
3    
Iteration 9 Energy -74.70707286
O       -0.1207311473   -0.0891684985    0.0632744453
H        0.3477606210    1.1955720520    0.3632001788
H        0.9225907530   -0.3969036387   -1.1100865665
