3    
Iteration 0 Energy -74.83298931
O       -0.0859698290   -0.0636457750    0.0449685530
H        0.2599527770    1.0420403610    0.3576916220
H        0.7924896470   -0.4044842930   -0.9904724410
3    
Iteration 1 Energy -74.83285866
O       -0.1456510133   -0.1033890672    0.0787666587
H        0.3169301150    0.9910301454    0.2737373970
H        0.7951935040   -0.3137307911   -0.9403163399
3    
Iteration 2 Energy -74.83632703
O       -0.1161063072   -0.0828823314    0.0625189539
H        0.2899179090    1.0161973087    0.3141103302
H        0.7926609734   -0.3594047099   -0.9644415684
3    
Iteration 3 Energy -74.83582126
O       -0.1155339394   -0.0823076227    0.0623072524
H        0.2896224441    1.0178755532    0.3153670312
H        0.7923840446   -0.3616576883   -0.9654865760
3    
Iteration 4 Energy -74.83562164
O       -0.1156723066   -0.0823125665    0.0624362819
H        0.2898360780    1.0182059459    0.3153552896
H        0.7923087516   -0.3619831640   -0.9656038706
3    
Iteration 5 Energy -74.83555140
O       -0.1157178506   -0.0822977661    0.0624882853
H        0.2899168727    1.0183276513    0.3153489455
H        0.7922734655   -0.3621197036   -0.9656495408
3    
Iteration 6 Energy -74.83552667
O       -0.1157339125   -0.0823049971    0.0624993885
H        0.2899245207    1.0183564411    0.3153583624
H        0.7922818451   -0.3621412961   -0.9656700708
3    
Iteration 7 Energy -74.83551804
O       -0.1157381570   -0.0823114665    0.0624996674
H        0.2899185025    1.0183628045    0.3153677866
H        0.7922920730   -0.3621412253   -0.9656797846
3    
Iteration 8 Energy -74.83551503
O       -0.1157393802   -0.0823144231    0.0624991065
H        0.2899148990    1.0183644503    0.3153721690
H        0.7922968615   -0.3621399513   -0.9656836183
3    
Iteration 9 Energy -74.83551398
O       -0.1157398958   -0.0823151243    0.0624991823
H        0.2899142602    1.0183653010    0.3153732639
H        0.7922979802   -0.3621401361   -0.9656848002
3    
Iteration 10 Energy -74.83551361
O       -0.1157401218   -0.0823152541    0.0624993161
H        0.2899142621    1.0183656772    0.3153734741
H        0.7922981766   -0.3621404104   -0.9656851525
