3    
Iteration 0 Energy -74.51351391
O       -0.0859698290   -0.0636457750    0.0449685530
H        0.4040871970    1.5027429180    0.4879929010
H        1.1062251740   -0.5262123350   -1.3602727970
3    
Iteration 1 Energy -74.51481625
O       -0.1296506816   -0.0938972445    0.0690292558
H        0.4442218027    1.4669090066    0.4289127937
H        1.1097713998   -0.4601269585   -1.3252534005
3    
Iteration 2 Energy -74.51532798
O       -0.1286918786   -0.0952163988    0.0673487341
H        0.4407422629    1.4651052326    0.4311815515
H        1.1122920649   -0.4570040633   -1.3258416339
3    
Iteration 3 Energy -74.51549671
O       -0.1281849060   -0.0969537856    0.0658559013
H        0.4375768692    1.4634927469    0.4332619785
H        1.1149503505   -0.4536542533   -1.3264292228
3    
Iteration 4 Energy -74.51555292
O       -0.1281217746   -0.0973371377    0.0655729483
H        0.4370696201    1.4631516784    0.4335473110
H        1.1153943737   -0.4529298761   -1.3264315993
3    
Iteration 5 Energy -74.51557329
O       -0.1281115147   -0.0973636822    0.0655477284
H        0.4370736042    1.4631310465    0.4335315081
H        1.1153800538   -0.4528827352   -1.3263905730
3    
Iteration 6 Energy -74.51558032
O       -0.1281033914   -0.0973537582    0.0655457360
H        0.4370921367    1.4631417870    0.4335200671
H        1.1153533275   -0.4529034313   -1.3263771370
3    
Iteration 7 Energy -74.51558257
O       -0.1281034665   -0.0973478957    0.0655491984
H        0.4371064918    1.4631467606    0.4335092576
H        1.1153389765   -0.4529142994   -1.3263697871
3    
Iteration 8 Energy -74.51558332
O       -0.1281041119   -0.0973422280    0.0655530819
H        0.4371170740    1.4631512754    0.4335017689
H        1.1153289219   -0.4529245349   -1.3263661761
