3    
Iteration 0 Energy -74.68907833
O       -0.0859698290   -0.0636457750    0.0449685530
H        0.1446452420    0.6734783160    0.2534505990
H        0.9807309630   -0.4775211190   -1.2123526540
3    
Iteration 1 Energy -74.68992422
O       -0.1385072359   -0.0913195689    0.0777088717
H        0.2310386951    0.6157090369    0.1387890722
H        0.9638029384   -0.4347995661   -1.1713920501
3    
Iteration 2 Energy -74.69167958
O       -0.1164951573   -0.0752879466    0.0636968176
H        0.2029446198    0.6476532571    0.1869431977
H        0.9668438932   -0.4587874492   -1.1884630629
3    
Iteration 3 Energy -74.69165456
O       -0.1138950490   -0.0709445559    0.0642815964
H        0.2047468338    0.6522239455    0.1887207216
H        0.9646426796   -0.4632444435   -1.1896441825
3    
Iteration 4 Energy -74.69162414
O       -0.1127840315   -0.0674129232    0.0652596327
H        0.2084736925    0.6549037648    0.1879356041
H        0.9622236719   -0.4663501107   -1.1897405992
3    
Iteration 5 Energy -74.69161362
O       -0.1121437893   -0.0639079478    0.0662109802
H        0.2130756342    0.6570001127    0.1867253960
H        0.9596024654   -0.4691506735   -1.1896110974
3    
Iteration 6 Energy -74.69161019
O       -0.1123015933   -0.0636282092    0.0661899040
H        0.2138168155    0.6568535109    0.1868260987
H        0.9593107184   -0.4692171916   -1.1896508746
3    
Iteration 7 Energy -74.69160949
O       -0.1125159366   -0.0634840563    0.0660464220
H        0.2145286880    0.6564730056    0.1873054217
H        0.9590618529   -0.4690989289   -1.1898187327
