3    
Iteration 0 Energy -74.69996883
O       -0.0859698290   -0.0636457750    0.0449685530
H        0.2022990090    0.8577593390    0.3055711110
H        1.1062251740   -0.5262123350   -1.3602727970
3    
Iteration 1 Energy -74.70250892
O       -0.1400564423   -0.0967293440    0.0765407179
H        0.2862407140    0.8004493324    0.1930150710
H        1.0912976174   -0.4810155401   -1.3197808608
3    
Iteration 2 Energy -74.70290664
O       -0.1291323260   -0.0817853217    0.0727257036
H        0.2830634468    0.8189796524    0.2091788780
H        1.0874241486   -0.4977527052   -1.3259552448
3    
Iteration 3 Energy -74.70289192
O       -0.1259942360   -0.0727788565    0.0738921100
H        0.2899301507    0.8264553776    0.2093946408
H        1.0824216916   -0.5059937916   -1.3266463108
3    
Iteration 4 Energy -74.70287043
O       -0.1246047181   -0.0647595396    0.0759097548
H        0.2996854799    0.8313040012    0.2064559274
H        1.0768491764   -0.5124277483   -1.3261857453
3    
Iteration 5 Energy -74.70285930
O       -0.1248073869   -0.0620364506    0.0768000950
H        0.3047313707    0.8318778659    0.2049233130
H        1.0744274854   -0.5140762104   -1.3258645790
3    
Iteration 6 Energy -74.70285797
O       -0.1251780367   -0.0617337067    0.0767855871
H        0.3062645364    0.8312104163    0.2052721462
H        1.0738461611   -0.5138938468   -1.3260317190
3    
Iteration 7 Energy -74.70285843
O       -0.1257467601   -0.0614698674    0.0764598213
H        0.3083751466    0.8299111555    0.2067610771
H        1.0730750788   -0.5133761127   -1.3266132512
