3    
Iteration 0 Energy -74.83800869
O        0.0000000000    0.0000000000    0.0000000000
H        0.2760264000    0.8822741000    0.6495351000
H        0.1036576000   -0.7768012000   -0.5501827000
3    
Iteration 1 Energy -74.89804404
O       -0.0698727162    0.0410502086    0.0250433581
H        0.2963321517    0.7875141524    0.5828990568
H        0.1532250370   -0.7230914777   -0.5085900169
3    
Iteration 2 Energy -74.94773048
O       -0.1917108158    0.0739226508    0.0409732781
H        0.3395517605    0.6741968010    0.5043987178
H        0.2318440836   -0.6426465833   -0.4460195921
3    
Iteration 3 Energy -74.95249268
O       -0.3534137348    0.0779103592    0.0337081420
H        0.4015129389    0.5442344430    0.4151428003
H        0.3315870782   -0.5166719800   -0.3494985927
3    
Iteration 4 Energy -74.96582905
O       -0.2987080319    0.0707057419    0.0319697716
H        0.3847962362    0.6255370368    0.4723589672
H        0.2935981394   -0.5907699509   -0.4049763840
3    
Iteration 5 Energy -74.96589975
O       -0.2960388877    0.0688971901    0.0308407238
H        0.3842442400    0.6311603079    0.4763533401
H        0.2914809152   -0.5945846555   -0.4078417069
3    
Iteration 6 Energy -74.96590120
O       -0.2959339703    0.0688786942    0.0308339257
H        0.3842837095    0.6319968447    0.4769543977
H        0.2913364064   -0.5954026761   -0.4084359605
3    
Iteration 7 Energy -74.96590122
O       -0.2959494022    0.0688275343    0.0307962054
H        0.3842933109    0.6319846807    0.4769455291
H        0.2913421262   -0.5953393407   -0.4083893649
